<?xml version="1.0" encoding="UTF-8"?>

<!-- generated on 2026-06-13T05:27:33.186701+07:00 by Eclipse SUMO netconvert 1.27.0
<netconvertConfiguration xmlns:xsi="http://www.w3.org/2001/XMLSchema-instance" xsi:noNamespaceSchemaLocation="http://sumo.dlr.de/xsd/netconvertConfiguration.xsd">

    <input>
        <node-files value="net/mydinh.nod.xml"/>
        <edge-files value="net/mydinh.edg.xml"/>
        <type-files value="net/mydinh.typ.xml"/>
    </input>

    <output>
        <output-file value="net/mydinh.net.xml"/>
    </output>

    <tls_building>
        <tls.cycle.time value="90"/>
        <tls.default-type value="actuated"/>
    </tls_building>

    <junctions>
        <no-turnarounds value="true"/>
        <junctions.corner-detail value="5"/>
    </junctions>

</netconvertConfiguration>
-->

<net version="1.20" junctionCornerDetail="5" limitTurnSpeed="5.50" xmlns:xsi="http://www.w3.org/2001/XMLSchema-instance" xsi:noNamespaceSchemaLocation="http://sumo.dlr.de/xsd/net_file.xsd">

    <location netOffset="900.00,700.00" convBoundary="0.00,0.00,1800.00,1400.00" origBoundary="-900.00,-700.00,900.00,700.00" projParameter="!"/>

    <type id="arterial" priority="14" numLanes="3" speed="16.67" allow="passenger bus motorcycle"/>
    <type id="outskirts" priority="10" numLanes="2" speed="19.44" allow="passenger bus motorcycle"/>
    <type id="secondary" priority="12" numLanes="2" speed="13.89" allow="passenger bus motorcycle"/>

    <edge id=":N01_0" function="internal">
        <lane id=":N01_0_0" index="0" allow="passenger bus motorcycle" speed="7.33" length="11.73" shape="295.20,1113.60 294.85,1109.75 293.80,1107.00 292.05,1105.35 289.60,1104.80"/>
    </edge>
    <edge id=":N01_1" function="internal">
        <lane id=":N01_1_0" index="0" allow="passenger bus motorcycle" speed="16.66" length="27.20" shape="295.20,1113.60 295.20,1086.40"/>
        <lane id=":N01_1_1" index="1" allow="passenger bus motorcycle" speed="16.66" length="27.20" shape="298.40,1113.60 298.40,1086.40"/>
    </edge>
    <edge id=":N01_3" function="internal">
        <lane id=":N01_3_0" index="0" allow="passenger bus motorcycle" speed="9.84" length="6.30" shape="298.40,1113.60 299.11,1107.34"/>
    </edge>
    <edge id=":N01_17" function="internal">
        <lane id=":N01_17_0" index="0" allow="passenger bus motorcycle" speed="9.84" length="15.70" shape="299.11,1107.34 299.15,1106.95 301.40,1102.20 305.15,1099.35 310.40,1098.40"/>
    </edge>
    <edge id=":N01_4" function="internal">
        <lane id=":N01_4_0" index="0" allow="passenger bus motorcycle" speed="6.51" length="9.03" shape="310.40,1108.00 307.95,1108.35 306.20,1109.40 305.15,1111.15 304.80,1113.60"/>
    </edge>
    <edge id=":N01_5" function="internal">
        <lane id=":N01_5_0" index="0" allow="passenger bus motorcycle" speed="18.05" length="21.12" shape="310.40,1108.00 304.12,1107.50 299.80,1106.40 295.59,1105.30 289.60,1104.80"/>
        <lane id=":N01_5_1" index="1" allow="passenger bus motorcycle" speed="18.05" length="21.12" shape="310.40,1104.80 304.12,1104.30 299.80,1103.20 295.59,1102.10 289.60,1101.60"/>
    </edge>
    <edge id=":N01_7" function="internal">
        <lane id=":N01_7_0" index="0" allow="passenger bus motorcycle" speed="9.84" length="4.01" shape="310.40,1101.60 306.45,1100.89"/>
    </edge>
    <edge id=":N01_18" function="internal">
        <lane id=":N01_18_0" index="0" allow="passenger bus motorcycle" speed="9.84" length="17.98" shape="306.45,1100.89 305.15,1100.65 301.40,1097.80 299.15,1093.05 298.40,1086.40"/>
    </edge>
    <edge id=":N01_8" function="internal">
        <lane id=":N01_8_0" index="0" allow="passenger bus motorcycle" speed="6.51" length="9.03" shape="304.80,1086.40 305.15,1088.85 306.20,1090.60 307.95,1091.65 310.40,1092.00"/>
    </edge>
    <edge id=":N01_9" function="internal">
        <lane id=":N01_9_0" index="0" allow="passenger bus motorcycle" speed="16.66" length="27.20" shape="304.80,1086.40 304.80,1113.60"/>
        <lane id=":N01_9_1" index="1" allow="passenger bus motorcycle" speed="16.66" length="27.20" shape="301.60,1086.40 301.60,1113.60"/>
    </edge>
    <edge id=":N01_11" function="internal">
        <lane id=":N01_11_0" index="0" allow="passenger bus motorcycle" speed="9.84" length="6.30" shape="301.60,1086.40 300.89,1092.66"/>
    </edge>
    <edge id=":N01_19" function="internal">
        <lane id=":N01_19_0" index="0" allow="passenger bus motorcycle" speed="9.84" length="15.70" shape="300.89,1092.66 300.85,1093.05 298.60,1097.80 294.85,1100.65 289.60,1101.60"/>
    </edge>
    <edge id=":N01_12" function="internal">
        <lane id=":N01_12_0" index="0" allow="passenger bus motorcycle" speed="7.33" length="11.73" shape="289.60,1095.20 292.05,1094.65 293.80,1093.00 294.85,1090.25 295.20,1086.40"/>
    </edge>
    <edge id=":N01_13" function="internal">
        <lane id=":N01_13_0" index="0" allow="passenger bus motorcycle" speed="18.05" length="21.01" shape="289.60,1095.20 295.59,1094.70 299.80,1093.60 304.12,1092.50 310.40,1092.00"/>
        <lane id=":N01_13_1" index="1" allow="passenger bus motorcycle" speed="18.05" length="21.01" shape="289.60,1098.40 295.59,1097.90 299.80,1096.80 304.12,1095.70 310.40,1095.20"/>
        <lane id=":N01_13_2" index="2" allow="passenger bus motorcycle" speed="18.05" length="21.01" shape="289.60,1098.40 310.40,1098.40"/>
    </edge>
    <edge id=":N01_16" function="internal">
        <lane id=":N01_16_0" index="0" allow="passenger bus motorcycle" speed="9.84" length="5.50" shape="289.60,1098.40 294.85,1099.35 294.98,1099.45"/>
    </edge>
    <edge id=":N01_20" function="internal">
        <lane id=":N01_20_0" index="0" allow="passenger bus motorcycle" speed="9.84" length="16.49" shape="294.98,1099.45 298.60,1102.20 300.85,1106.95 301.60,1113.60"/>
    </edge>
    <edge id=":N02_0" function="internal">
        <lane id=":N02_0_0" index="0" allow="passenger bus motorcycle" speed="7.33" length="11.73" shape="895.20,1113.60 894.65,1111.15 893.00,1109.40 890.25,1108.35 886.40,1108.00"/>
    </edge>
    <edge id=":N02_1" function="internal">
        <lane id=":N02_1_0" index="0" allow="passenger bus motorcycle" speed="18.05" length="27.36" shape="895.20,1113.60 894.70,1107.06 893.60,1101.39 892.50,1095.02 892.00,1086.40"/>
        <lane id=":N02_1_1" index="1" allow="passenger bus motorcycle" speed="18.05" length="27.36" shape="898.40,1113.60 897.90,1107.06 896.80,1101.39 895.70,1095.02 895.20,1086.40"/>
        <lane id=":N02_1_2" index="2" allow="passenger bus motorcycle" speed="18.05" length="27.36" shape="898.40,1113.60 898.40,1086.40"/>
    </edge>
    <edge id=":N02_4" function="internal">
        <lane id=":N02_4_0" index="0" allow="passenger bus motorcycle" speed="10.36" length="7.16" shape="898.40,1113.60 899.35,1106.95 899.58,1106.57"/>
    </edge>
    <edge id=":N02_19" function="internal">
        <lane id=":N02_19_0" index="0" allow="passenger bus motorcycle" speed="10.36" length="17.36" shape="899.58,1106.57 902.20,1102.20 906.95,1099.35 913.60,1098.40"/>
    </edge>
    <edge id=":N02_5" function="internal">
        <lane id=":N02_5_0" index="0" allow="passenger bus motorcycle" speed="7.33" length="11.73" shape="913.60,1108.00 909.75,1108.35 907.00,1109.40 905.35,1111.15 904.80,1113.60"/>
    </edge>
    <edge id=":N02_6" function="internal">
        <lane id=":N02_6_0" index="0" allow="passenger bus motorcycle" speed="16.67" length="27.20" shape="913.60,1108.00 886.40,1108.00"/>
        <lane id=":N02_6_1" index="1" allow="passenger bus motorcycle" speed="16.67" length="27.20" shape="913.60,1104.80 886.40,1104.80"/>
        <lane id=":N02_6_2" index="2" allow="passenger bus motorcycle" speed="16.67" length="27.20" shape="913.60,1101.60 886.40,1101.60"/>
    </edge>
    <edge id=":N02_9" function="internal">
        <lane id=":N02_9_0" index="0" allow="passenger bus motorcycle" speed="10.36" length="5.01" shape="913.60,1101.60 908.64,1100.89"/>
    </edge>
    <edge id=":N02_20" function="internal">
        <lane id=":N02_20_0" index="0" allow="passenger bus motorcycle" speed="10.36" length="19.50" shape="908.64,1100.89 906.95,1100.65 902.20,1097.80 899.35,1093.05 898.40,1086.40"/>
    </edge>
    <edge id=":N02_10" function="internal">
        <lane id=":N02_10_0" index="0" allow="passenger bus motorcycle" speed="6.51" length="9.03" shape="908.00,1086.40 908.35,1088.85 909.40,1090.60 911.15,1091.65 913.60,1092.00"/>
    </edge>
    <edge id=":N02_11" function="internal">
        <lane id=":N02_11_0" index="0" allow="passenger bus motorcycle" speed="18.05" length="27.43" shape="908.00,1086.40 907.50,1095.02 906.40,1101.39 905.30,1107.06 904.80,1113.60"/>
        <lane id=":N02_11_1" index="1" allow="passenger bus motorcycle" speed="18.05" length="27.43" shape="904.80,1086.40 904.30,1095.02 903.20,1101.39 902.10,1107.06 901.60,1113.60"/>
    </edge>
    <edge id=":N02_13" function="internal">
        <lane id=":N02_13_0" index="0" allow="passenger bus motorcycle" speed="10.36" length="5.01" shape="901.60,1086.40 900.89,1091.36"/>
    </edge>
    <edge id=":N02_21" function="internal">
        <lane id=":N02_21_0" index="0" allow="passenger bus motorcycle" speed="10.36" length="19.50" shape="900.89,1091.36 900.65,1093.05 897.80,1097.80 893.05,1100.65 886.40,1101.60"/>
    </edge>
    <edge id=":N02_14" function="internal">
        <lane id=":N02_14_0" index="0" allow="passenger bus motorcycle" speed="6.51" length="9.03" shape="886.40,1092.00 888.85,1091.65 890.60,1090.60 891.65,1088.85 892.00,1086.40"/>
    </edge>
    <edge id=":N02_15" function="internal">
        <lane id=":N02_15_0" index="0" allow="passenger bus motorcycle" speed="16.67" length="27.20" shape="886.40,1092.00 913.60,1092.00"/>
        <lane id=":N02_15_1" index="1" allow="passenger bus motorcycle" speed="16.67" length="27.20" shape="886.40,1095.20 913.60,1095.20"/>
        <lane id=":N02_15_2" index="2" allow="passenger bus motorcycle" speed="16.67" length="27.20" shape="886.40,1098.40 913.60,1098.40"/>
    </edge>
    <edge id=":N02_18" function="internal">
        <lane id=":N02_18_0" index="0" allow="passenger bus motorcycle" speed="10.36" length="5.01" shape="886.40,1098.40 891.36,1099.11"/>
    </edge>
    <edge id=":N02_22" function="internal">
        <lane id=":N02_22_0" index="0" allow="passenger bus motorcycle" speed="10.36" length="19.50" shape="891.36,1099.11 893.05,1099.35 897.80,1102.20 900.65,1106.95 901.60,1113.60"/>
    </edge>
    <edge id=":N03_0" function="internal">
        <lane id=":N03_0_0" index="0" allow="passenger bus motorcycle" speed="7.33" length="11.73" shape="1495.20,1113.60 1494.65,1111.15 1493.00,1109.40 1490.25,1108.35 1486.40,1108.00"/>
    </edge>
    <edge id=":N03_1" function="internal">
        <lane id=":N03_1_0" index="0" allow="passenger bus motorcycle" speed="18.05" length="27.36" shape="1495.20,1113.60 1494.70,1107.06 1493.60,1101.39 1492.50,1095.02 1492.00,1086.40"/>
        <lane id=":N03_1_1" index="1" allow="passenger bus motorcycle" speed="18.05" length="27.36" shape="1498.40,1113.60 1497.90,1107.06 1496.80,1101.39 1495.70,1095.02 1495.20,1086.40"/>
        <lane id=":N03_1_2" index="2" allow="passenger bus motorcycle" speed="18.05" length="27.36" shape="1498.40,1113.60 1498.40,1086.40"/>
    </edge>
    <edge id=":N03_4" function="internal">
        <lane id=":N03_4_0" index="0" allow="passenger bus motorcycle" speed="10.36" length="7.16" shape="1498.40,1113.60 1499.35,1106.95 1499.58,1106.57"/>
    </edge>
    <edge id=":N03_18" function="internal">
        <lane id=":N03_18_0" index="0" allow="passenger bus motorcycle" speed="10.36" length="17.36" shape="1499.58,1106.57 1502.20,1102.20 1506.95,1099.35 1513.60,1098.40"/>
    </edge>
    <edge id=":N03_5" function="internal">
        <lane id=":N03_5_0" index="0" allow="passenger bus motorcycle" speed="8.00" length="14.19" shape="1513.60,1104.80 1509.75,1105.35 1507.00,1107.00 1505.35,1109.75 1504.80,1113.60"/>
    </edge>
    <edge id=":N03_6" function="internal">
        <lane id=":N03_6_0" index="0" allow="passenger bus motorcycle" speed="18.05" length="27.36" shape="1513.60,1104.80 1507.06,1105.30 1501.39,1106.40 1495.02,1107.50 1486.40,1108.00"/>
        <lane id=":N03_6_1" index="1" allow="passenger bus motorcycle" speed="18.05" length="27.36" shape="1513.60,1101.60 1507.06,1102.10 1501.39,1103.20 1495.02,1104.30 1486.40,1104.80"/>
        <lane id=":N03_6_2" index="2" allow="passenger bus motorcycle" speed="18.05" length="27.36" shape="1513.60,1101.60 1486.40,1101.60"/>
    </edge>
    <edge id=":N03_9" function="internal">
        <lane id=":N03_9_0" index="0" allow="passenger bus motorcycle" speed="10.36" length="7.16" shape="1513.60,1101.60 1506.95,1100.65 1506.57,1100.42"/>
    </edge>
    <edge id=":N03_19" function="internal">
        <lane id=":N03_19_0" index="0" allow="passenger bus motorcycle" speed="10.36" length="17.36" shape="1506.57,1100.42 1502.20,1097.80 1499.35,1093.05 1498.40,1086.40"/>
    </edge>
    <edge id=":N03_10" function="internal">
        <lane id=":N03_10_0" index="0" allow="passenger bus motorcycle" speed="7.33" length="11.73" shape="1508.00,1086.40 1508.35,1090.25 1509.40,1093.00 1511.15,1094.65 1513.60,1095.20"/>
    </edge>
    <edge id=":N03_11" function="internal">
        <lane id=":N03_11_0" index="0" allow="passenger bus motorcycle" speed="18.05" length="27.43" shape="1508.00,1086.40 1507.50,1095.02 1506.40,1101.39 1505.30,1107.06 1504.80,1113.60"/>
        <lane id=":N03_11_1" index="1" allow="passenger bus motorcycle" speed="18.05" length="27.43" shape="1504.80,1086.40 1504.30,1095.02 1503.20,1101.39 1502.10,1107.06 1501.60,1113.60"/>
    </edge>
    <edge id=":N03_13" function="internal">
        <lane id=":N03_13_0" index="0" allow="passenger bus motorcycle" speed="10.36" length="5.01" shape="1501.60,1086.40 1500.89,1091.36"/>
    </edge>
    <edge id=":N03_20" function="internal">
        <lane id=":N03_20_0" index="0" allow="passenger bus motorcycle" speed="10.36" length="19.50" shape="1500.89,1091.36 1500.65,1093.05 1497.80,1097.80 1493.05,1100.65 1486.40,1101.60"/>
    </edge>
    <edge id=":N03_14" function="internal">
        <lane id=":N03_14_0" index="0" allow="passenger bus motorcycle" speed="6.51" length="9.03" shape="1486.40,1092.00 1488.85,1091.65 1490.60,1090.60 1491.65,1088.85 1492.00,1086.40"/>
    </edge>
    <edge id=":N03_15" function="internal">
        <lane id=":N03_15_0" index="0" allow="passenger bus motorcycle" speed="18.05" length="27.43" shape="1486.40,1092.00 1495.02,1092.50 1501.39,1093.60 1507.06,1094.70 1513.60,1095.20"/>
        <lane id=":N03_15_1" index="1" allow="passenger bus motorcycle" speed="18.05" length="27.43" shape="1486.40,1095.20 1495.02,1095.70 1501.39,1096.80 1507.06,1097.90 1513.60,1098.40"/>
    </edge>
    <edge id=":N03_17" function="internal">
        <lane id=":N03_17_0" index="0" allow="passenger bus motorcycle" speed="10.36" length="5.01" shape="1486.40,1098.40 1491.36,1099.11"/>
    </edge>
    <edge id=":N03_21" function="internal">
        <lane id=":N03_21_0" index="0" allow="passenger bus motorcycle" speed="10.36" length="19.50" shape="1491.36,1099.11 1493.05,1099.35 1497.80,1102.20 1500.65,1106.95 1501.60,1113.60"/>
    </edge>
    <edge id=":N04_0" function="internal">
        <lane id=":N04_0_0" index="0" allow="passenger bus motorcycle" speed="6.51" length="9.03" shape="295.20,710.40 294.85,707.95 293.80,706.20 292.05,705.15 289.60,704.80"/>
    </edge>
    <edge id=":N04_1" function="internal">
        <lane id=":N04_1_0" index="0" allow="passenger bus motorcycle" speed="13.89" length="20.80" shape="295.20,710.40 295.20,689.60"/>
        <lane id=":N04_1_1" index="1" allow="passenger bus motorcycle" speed="13.89" length="20.80" shape="298.40,710.40 298.40,689.60"/>
    </edge>
    <edge id=":N04_3" function="internal">
        <lane id=":N04_3_0" index="0" allow="passenger bus motorcycle" speed="9.26" length="5.01" shape="298.40,710.40 299.11,705.44"/>
    </edge>
    <edge id=":N04_16" function="internal">
        <lane id=":N04_16_0" index="0" allow="passenger bus motorcycle" speed="9.26" length="14.34" shape="299.11,705.44 299.15,705.15 301.40,701.40 305.15,699.15 310.40,698.40"/>
    </edge>
    <edge id=":N04_4" function="internal">
        <lane id=":N04_4_0" index="0" allow="passenger bus motorcycle" speed="6.51" length="9.03" shape="310.40,704.80 307.95,705.15 306.20,706.20 305.15,707.95 304.80,710.40"/>
    </edge>
    <edge id=":N04_5" function="internal">
        <lane id=":N04_5_0" index="0" allow="passenger bus motorcycle" speed="16.66" length="20.80" shape="310.40,704.80 289.60,704.80"/>
        <lane id=":N04_5_1" index="1" allow="passenger bus motorcycle" speed="16.66" length="20.80" shape="310.40,701.60 289.60,701.60"/>
    </edge>
    <edge id=":N04_7" function="internal">
        <lane id=":N04_7_0" index="0" allow="passenger bus motorcycle" speed="9.26" length="5.01" shape="310.40,701.60 305.44,700.89"/>
    </edge>
    <edge id=":N04_17" function="internal">
        <lane id=":N04_17_0" index="0" allow="passenger bus motorcycle" speed="9.26" length="14.34" shape="305.44,700.89 305.15,700.85 301.40,698.60 299.15,694.85 298.40,689.60"/>
    </edge>
    <edge id=":N04_8" function="internal">
        <lane id=":N04_8_0" index="0" allow="passenger bus motorcycle" speed="6.51" length="9.03" shape="304.80,689.60 305.15,692.05 306.20,693.80 307.95,694.85 310.40,695.20"/>
    </edge>
    <edge id=":N04_9" function="internal">
        <lane id=":N04_9_0" index="0" allow="passenger bus motorcycle" speed="13.89" length="20.80" shape="304.80,689.60 304.80,710.40"/>
        <lane id=":N04_9_1" index="1" allow="passenger bus motorcycle" speed="13.89" length="20.80" shape="301.60,689.60 301.60,710.40"/>
    </edge>
    <edge id=":N04_11" function="internal">
        <lane id=":N04_11_0" index="0" allow="passenger bus motorcycle" speed="9.26" length="5.01" shape="301.60,689.60 300.89,694.56"/>
    </edge>
    <edge id=":N04_18" function="internal">
        <lane id=":N04_18_0" index="0" allow="passenger bus motorcycle" speed="9.26" length="14.34" shape="300.89,694.56 300.85,694.85 298.60,698.60 294.85,700.85 289.60,701.60"/>
    </edge>
    <edge id=":N04_12" function="internal">
        <lane id=":N04_12_0" index="0" allow="passenger bus motorcycle" speed="6.51" length="9.03" shape="289.60,695.20 292.05,694.85 293.80,693.80 294.85,692.05 295.20,689.60"/>
    </edge>
    <edge id=":N04_13" function="internal">
        <lane id=":N04_13_0" index="0" allow="passenger bus motorcycle" speed="16.66" length="20.80" shape="289.60,695.20 310.40,695.20"/>
        <lane id=":N04_13_1" index="1" allow="passenger bus motorcycle" speed="16.66" length="20.80" shape="289.60,698.40 310.40,698.40"/>
    </edge>
    <edge id=":N04_15" function="internal">
        <lane id=":N04_15_0" index="0" allow="passenger bus motorcycle" speed="9.26" length="5.01" shape="289.60,698.40 294.56,699.11"/>
    </edge>
    <edge id=":N04_19" function="internal">
        <lane id=":N04_19_0" index="0" allow="passenger bus motorcycle" speed="9.26" length="14.34" shape="294.56,699.11 294.85,699.15 298.60,701.40 300.85,705.15 301.60,710.40"/>
    </edge>
    <edge id=":N05_0" function="internal">
        <lane id=":N05_0_0" index="0" allow="passenger bus motorcycle" speed="6.51" length="9.03" shape="892.00,710.40 891.65,707.95 890.60,706.20 888.85,705.15 886.40,704.80"/>
    </edge>
    <edge id=":N05_1" function="internal">
        <lane id=":N05_1_0" index="0" allow="passenger bus motorcycle" speed="16.67" length="20.80" shape="892.00,710.40 892.00,689.60"/>
        <lane id=":N05_1_1" index="1" allow="passenger bus motorcycle" speed="16.67" length="20.80" shape="895.20,710.40 895.20,689.60"/>
        <lane id=":N05_1_2" index="2" allow="passenger bus motorcycle" speed="16.67" length="20.80" shape="898.40,710.40 898.40,689.60"/>
    </edge>
    <edge id=":N05_4" function="internal">
        <lane id=":N05_4_0" index="0" allow="passenger bus motorcycle" speed="16.67" length="20.80" shape="908.00,689.60 908.00,710.40"/>
        <lane id=":N05_4_1" index="1" allow="passenger bus motorcycle" speed="16.67" length="20.80" shape="904.80,689.60 904.80,710.40"/>
        <lane id=":N05_4_2" index="2" allow="passenger bus motorcycle" speed="16.67" length="20.80" shape="901.60,689.60 901.60,710.40"/>
    </edge>
    <edge id=":N05_7" function="internal">
        <lane id=":N05_7_0" index="0" allow="passenger bus motorcycle" speed="9.84" length="4.01" shape="901.60,689.60 900.89,693.55"/>
    </edge>
    <edge id=":N05_12" function="internal">
        <lane id=":N05_12_0" index="0" allow="passenger bus motorcycle" speed="9.84" length="17.98" shape="900.89,693.55 900.65,694.85 897.80,698.60 893.05,700.85 886.40,701.60"/>
    </edge>
    <edge id=":N05_8" function="internal">
        <lane id=":N05_8_0" index="0" allow="passenger bus motorcycle" speed="6.51" length="9.03" shape="886.40,695.20 888.85,694.85 890.60,693.80 891.65,692.05 892.00,689.60"/>
        <lane id=":N05_8_1" index="1" allow="passenger bus motorcycle" speed="8.00" length="14.19" shape="886.40,698.40 890.25,697.85 893.00,696.20 894.65,693.45 895.20,689.60"/>
    </edge>
    <edge id=":N05_10" function="internal">
        <lane id=":N05_10_0" index="0" allow="passenger bus motorcycle" speed="10.41" length="24.73" shape="886.40,698.40 894.45,699.15 900.20,701.40 903.65,705.15 904.80,710.40"/>
        <lane id=":N05_10_1" index="1" allow="passenger bus motorcycle" speed="9.84" length="21.99" shape="886.40,698.40 893.05,699.15 897.80,701.40 900.65,705.15 901.60,710.40"/>
    </edge>
    <edge id=":N06_0" function="internal">
        <lane id=":N06_0_0" index="0" allow="passenger bus motorcycle" speed="11.39" length="29.85" shape="1492.00,710.40 1493.35,703.75 1497.40,699.00 1504.15,696.15 1513.60,695.20"/>
        <lane id=":N06_0_1" index="1" allow="passenger bus motorcycle" speed="10.41" length="24.73" shape="1495.20,710.40 1496.35,705.15 1499.80,701.40 1505.55,699.15 1513.60,698.40"/>
    </edge>
    <edge id=":N06_2" function="internal">
        <lane id=":N06_2_0" index="0" allow="passenger bus motorcycle" speed="6.51" length="9.03" shape="1513.60,704.80 1511.15,705.15 1509.40,706.20 1508.35,707.95 1508.00,710.40"/>
        <lane id=":N06_2_1" index="1" allow="passenger bus motorcycle" speed="8.00" length="14.19" shape="1513.60,701.60 1509.75,702.15 1507.00,703.80 1505.35,706.55 1504.80,710.40"/>
        <lane id=":N06_2_2" index="2" allow="passenger bus motorcycle" speed="8.67" length="16.85" shape="1513.60,701.60 1508.35,702.15 1504.60,703.80 1502.35,706.55 1501.60,710.40"/>
    </edge>
    <edge id=":N07_0" function="internal">
        <lane id=":N07_0_0" index="0" allow="passenger bus motorcycle" speed="6.51" length="9.03" shape="295.20,310.40 294.85,307.95 293.80,306.20 292.05,305.15 289.60,304.80"/>
    </edge>
    <edge id=":N07_1" function="internal">
        <lane id=":N07_1_0" index="0" allow="passenger bus motorcycle" speed="16.66" length="20.80" shape="295.20,310.40 295.20,289.60"/>
        <lane id=":N07_1_1" index="1" allow="passenger bus motorcycle" speed="16.66" length="20.80" shape="298.40,310.40 298.40,289.60"/>
    </edge>
    <edge id=":N07_3" function="internal">
        <lane id=":N07_3_0" index="0" allow="passenger bus motorcycle" speed="9.26" length="5.01" shape="298.40,310.40 299.11,305.44"/>
    </edge>
    <edge id=":N07_16" function="internal">
        <lane id=":N07_16_0" index="0" allow="passenger bus motorcycle" speed="9.26" length="14.34" shape="299.11,305.44 299.15,305.15 301.40,301.40 305.15,299.15 310.40,298.40"/>
    </edge>
    <edge id=":N07_4" function="internal">
        <lane id=":N07_4_0" index="0" allow="passenger bus motorcycle" speed="6.51" length="9.03" shape="310.40,304.80 307.95,305.15 306.20,306.20 305.15,307.95 304.80,310.40"/>
    </edge>
    <edge id=":N07_5" function="internal">
        <lane id=":N07_5_0" index="0" allow="passenger bus motorcycle" speed="16.66" length="20.80" shape="310.40,304.80 289.60,304.80"/>
        <lane id=":N07_5_1" index="1" allow="passenger bus motorcycle" speed="16.66" length="20.80" shape="310.40,301.60 289.60,301.60"/>
    </edge>
    <edge id=":N07_7" function="internal">
        <lane id=":N07_7_0" index="0" allow="passenger bus motorcycle" speed="9.26" length="5.01" shape="310.40,301.60 305.44,300.89"/>
    </edge>
    <edge id=":N07_17" function="internal">
        <lane id=":N07_17_0" index="0" allow="passenger bus motorcycle" speed="9.26" length="14.34" shape="305.44,300.89 305.15,300.85 301.40,298.60 299.15,294.85 298.40,289.60"/>
    </edge>
    <edge id=":N07_8" function="internal">
        <lane id=":N07_8_0" index="0" allow="passenger bus motorcycle" speed="6.51" length="9.03" shape="304.80,289.60 305.15,292.05 306.20,293.80 307.95,294.85 310.40,295.20"/>
    </edge>
    <edge id=":N07_9" function="internal">
        <lane id=":N07_9_0" index="0" allow="passenger bus motorcycle" speed="16.66" length="20.80" shape="304.80,289.60 304.80,310.40"/>
        <lane id=":N07_9_1" index="1" allow="passenger bus motorcycle" speed="16.66" length="20.80" shape="301.60,289.60 301.60,310.40"/>
    </edge>
    <edge id=":N07_11" function="internal">
        <lane id=":N07_11_0" index="0" allow="passenger bus motorcycle" speed="9.26" length="5.01" shape="301.60,289.60 300.89,294.56"/>
    </edge>
    <edge id=":N07_18" function="internal">
        <lane id=":N07_18_0" index="0" allow="passenger bus motorcycle" speed="9.26" length="14.34" shape="300.89,294.56 300.85,294.85 298.60,298.60 294.85,300.85 289.60,301.60"/>
    </edge>
    <edge id=":N07_12" function="internal">
        <lane id=":N07_12_0" index="0" allow="passenger bus motorcycle" speed="6.51" length="9.03" shape="289.60,295.20 292.05,294.85 293.80,293.80 294.85,292.05 295.20,289.60"/>
    </edge>
    <edge id=":N07_13" function="internal">
        <lane id=":N07_13_0" index="0" allow="passenger bus motorcycle" speed="16.66" length="20.80" shape="289.60,295.20 310.40,295.20"/>
        <lane id=":N07_13_1" index="1" allow="passenger bus motorcycle" speed="16.66" length="20.80" shape="289.60,298.40 310.40,298.40"/>
    </edge>
    <edge id=":N07_15" function="internal">
        <lane id=":N07_15_0" index="0" allow="passenger bus motorcycle" speed="9.26" length="5.01" shape="289.60,298.40 294.56,299.11"/>
    </edge>
    <edge id=":N07_19" function="internal">
        <lane id=":N07_19_0" index="0" allow="passenger bus motorcycle" speed="9.26" length="14.34" shape="294.56,299.11 294.85,299.15 298.60,301.40 300.85,305.15 301.60,310.40"/>
    </edge>
    <edge id=":N08_0" function="internal">
        <lane id=":N08_0_0" index="0" allow="passenger bus motorcycle" speed="6.51" length="9.03" shape="892.00,310.40 891.65,307.95 890.60,306.20 888.85,305.15 886.40,304.80"/>
    </edge>
    <edge id=":N08_1" function="internal">
        <lane id=":N08_1_0" index="0" allow="passenger bus motorcycle" speed="18.05" length="20.80" shape="895.20,310.40 895.20,289.60"/>
        <lane id=":N08_1_1" index="1" allow="passenger bus motorcycle" speed="18.05" length="20.80" shape="898.40,310.40 898.40,289.60"/>
    </edge>
    <edge id=":N08_3" function="internal">
        <lane id=":N08_3_0" index="0" allow="passenger bus motorcycle" speed="18.05" length="21.01" shape="904.80,289.60 905.30,295.59 906.40,299.80 907.50,304.12 908.00,310.40"/>
        <lane id=":N08_3_1" index="1" allow="passenger bus motorcycle" speed="18.05" length="21.01" shape="901.60,289.60 902.10,295.59 903.20,299.80 904.30,304.12 904.80,310.40"/>
        <lane id=":N08_3_2" index="2" allow="passenger bus motorcycle" speed="18.05" length="21.01" shape="901.60,289.60 901.60,310.40"/>
    </edge>
    <edge id=":N08_6" function="internal">
        <lane id=":N08_6_0" index="0" allow="passenger bus motorcycle" speed="9.84" length="4.01" shape="901.60,289.60 900.89,293.55"/>
    </edge>
    <edge id=":N08_11" function="internal">
        <lane id=":N08_11_0" index="0" allow="passenger bus motorcycle" speed="9.84" length="17.98" shape="900.89,293.55 900.65,294.85 897.80,298.60 893.05,300.85 886.40,301.60"/>
    </edge>
    <edge id=":N08_7" function="internal">
        <lane id=":N08_7_0" index="0" allow="passenger bus motorcycle" speed="7.33" length="11.73" shape="886.40,295.20 890.25,294.85 893.00,293.80 894.65,292.05 895.20,289.60"/>
        <lane id=":N08_7_1" index="1" allow="passenger bus motorcycle" speed="8.67" length="16.85" shape="886.40,298.40 891.65,297.85 895.40,296.20 897.65,293.45 898.40,289.60"/>
    </edge>
    <edge id=":N08_9" function="internal">
        <lane id=":N08_9_0" index="0" allow="passenger bus motorcycle" speed="10.41" length="24.73" shape="886.40,298.40 894.45,299.15 900.20,301.40 903.65,305.15 904.80,310.40"/>
        <lane id=":N08_9_1" index="1" allow="passenger bus motorcycle" speed="9.84" length="21.99" shape="886.40,298.40 893.05,299.15 897.80,301.40 900.65,305.15 901.60,310.40"/>
    </edge>
    <edge id=":SRC_HN_0" function="internal">
        <lane id=":SRC_HN_0_0" index="0" allow="passenger bus motorcycle" speed="13.89" length="0.10" shape="600.00,704.80 600.00,704.80"/>
        <lane id=":SRC_HN_0_1" index="1" allow="passenger bus motorcycle" speed="13.89" length="0.10" shape="600.00,701.60 600.00,701.60"/>
    </edge>
    <edge id=":SRC_HN_2" function="internal">
        <lane id=":SRC_HN_2_0" index="0" allow="passenger bus motorcycle" speed="13.89" length="0.10" shape="600.00,695.20 600.00,695.20"/>
        <lane id=":SRC_HN_2_1" index="1" allow="passenger bus motorcycle" speed="13.89" length="0.10" shape="600.00,698.40 600.00,698.40"/>
    </edge>
    <edge id=":SRC_HTM_E_0" function="internal">
        <lane id=":SRC_HTM_E_0_0" index="0" allow="passenger bus motorcycle" speed="16.67" length="0.10" shape="1200.00,1108.00 1200.00,1108.00"/>