<?xml version="1.0" encoding="UTF-8"?>
<routes xmlns:xsi="http://www.w3.org/2001/XMLSchema-instance"
        xsi:noNamespaceSchemaLocation="http://sumo.dlr.de/xsd/routes_file.xsd">

    <!-- Vehicle types -->
    <vType id="passenger" vClass="passenger" length="4.5" maxSpeed="16.67"
           accel="2.6" decel="4.5" sigma="0.5" color="0.7,0.7,1.0"/>
    <vType id="motorcycle" vClass="motorcycle" length="2.0" maxSpeed="19.44"
           accel="3.5" decel="5.0" sigma="0.6" color="1.0,0.6,0.0"/>
    <vType id="bus" vClass="bus" length="12.0" maxSpeed="13.89"
           accel="1.2" decel="3.5" sigma="0.3" color="0.2,0.8,0.2"/>

    <flow id="f0" type="passenger" from="EXT_E_N03_in" to="N01_EXT_W_N01" begin="0" end="3600" vehsPerHour="66" departSpeed="max" departLane="best"/>
    <flow id="f1" type="motorcycle" from="EXT_E_N03_in" to="N01_EXT_W_N01" begin="0" end="3600" vehsPerHour="48" departSpeed="max" departLane="best"/>
    <flow id="f2" type="bus" from="EXT_E_N03_in" to="N01_EXT_W_N01" begin="0" end="3600" vehsPerHour="6" departSpeed="max" departLane="best"/>
    <flow id="f3" type="passenger" from="EXT_W_N01_in" to="N03_EXT_E_N03" begin="0" end="3600" vehsPerHour="66" departSpeed="max" departLane="best"/>
    <flow id="f4" type="motorcycle" from="EXT_W_N01_in" to="N03_EXT_E_N03" begin="0" end="3600" vehsPerHour="48" departSpeed="max" departLane="best"/>
    <flow id="f5" type="bus" from="EXT_W_N01_in" to="N03_EXT_E_N03" begin="0" end="3600" vehsPerHour="6" departSpeed="max" departLane="best"/>
    <flow id="f6" type="passenger" from="EXT_N_N02_in" to="N08_EXT_S_N08" begin="0" end="3600" vehsPerHour="44" departSpeed="max" departLane="best"/>
    <flow id="f7" type="motorcycle" from="EXT_N_N02_in" to="N08_EXT_S_N08" begin="0" end="3600" vehsPerHour="32" departSpeed="max" departLane="best"/>
    <flow id="f8" type="bus" from="EXT_N_N02_in" to="N08_EXT_S_N08" begin="0" end="3600" vehsPerHour="4" departSpeed="max" departLane="best"/>
    <flow id="f9" type="passenger" from="EXT_S_N08_in" to="N02_EXT_N_N02" begin="0" end="3600" vehsPerHour="44" departSpeed="max" departLane="best"/>
    <flow id="f10" type="motorcycle" from="EXT_S_N08_in" to="N02_EXT_N_N02" begin="0" end="3600" vehsPerHour="32" departSpeed="max" departLane="best"/>
    <flow id="f11" type="bus" from="EXT_S_N08_in" to="N02_EXT_N_N02" begin="0" end="3600" vehsPerHour="4" departSpeed="max" departLane="best"/>
    <flow id="f12" type="passenger" from="EXT_N_N03_in" to="N06_EXT_E_N06" begin="0" end="3600" vehsPerHour="38" departSpeed="max" departLane="best"/>
    <flow id="f13" type="motorcycle" from="EXT_N_N03_in" to="N06_EXT_E_N06" begin="0" end="3600" vehsPerHour="28" departSpeed="max" departLane="best"/>
    <flow id="f14" type="bus" from="EXT_N_N03_in" to="N06_EXT_E_N06" begin="0" end="3600" vehsPerHour="3" departSpeed="max" departLane="best"/>
    <flow id="f15" type="passenger" from="EXT_E_N06_in" to="N03_EXT_N_N03" begin="0" end="3600" vehsPerHour="38" departSpeed="max" departLane="best"/>
    <flow id="f16" type="motorcycle" from="EXT_E_N06_in" to="N03_EXT_N_N03" begin="0" end="3600" vehsPerHour="28" departSpeed="max" departLane="best"/>
    <flow id="f17" type="bus" from="EXT_E_N06_in" to="N03_EXT_N_N03" begin="0" end="3600" vehsPerHour="3" departSpeed="max" departLane="best"/>
    <flow id="f18" type="passenger" from="EXT_N_N01_in" to="N07_EXT_S_N07" begin="0" end="3600" vehsPerHour="27" departSpeed="max" departLane="best"/>
    <flow id="f19" type="motorcycle" from="EXT_N_N01_in" to="N07_EXT_S_N07" begin="0" end="3600" vehsPerHour="20" departSpeed="max" departLane="best"/>
    <flow id="f20" type="bus" from="EXT_N_N01_in" to="N07_EXT_S_N07" begin="0" end="3600" vehsPerHour="2" departSpeed="max" departLane="best"/>
    <flow id="f21" type="passenger" from="EXT_S_N07_in" to="N01_EXT_N_N01" begin="0" end="3600" vehsPerHour="27" departSpeed="max" departLane="best"/>
    <flow id="f22" type="motorcycle" from="EXT_S_N07_in" to="N01_EXT_N_N01" begin="0" end="3600" vehsPerHour="20" departSpeed="max" departLane="best"/>
    <flow id="f23" type="bus" from="EXT_S_N07_in" to="N01_EXT_N_N01" begin="0" end="3600" vehsPerHour="2" departSpeed="max" departLane="best"/>
    <flow id="f24" type="passenger" from="EXT_W_N04_in" to="N05_SRC_LDT_N" begin="0" end="3600" vehsPerHour="22" departSpeed="max" departLane="best"/>
    <flow id="f25" type="motorcycle" from="EXT_W_N04_in" to="N05_SRC_LDT_N" begin="0" end="3600" vehsPerHour="16" departSpeed="max" departLane="best"/>
    <flow id="f26" type="bus" from="EXT_W_N04_in" to="N05_SRC_LDT_N" begin="0" end="3600" vehsPerHour="2" departSpeed="max" departLane="best"/>
    <flow id="f27" type="passenger" from="EXT_W_N07_in" to="N07_EXT_W_N07" begin="0" end="3600" vehsPerHour="16" departSpeed="max" departLane="best"/>
    <flow id="f28" type="motorcycle" from="EXT_W_N07_in" to="N07_EXT_W_N07" begin="0" end="3600" vehsPerHour="12" departSpeed="max" departLane="best"/>
    <flow id="f29" type="bus" from="EXT_W_N07_in" to="N07_EXT_W_N07" begin="0" end="3600" vehsPerHour="1" departSpeed="max" departLane="best"/>
    <flow id="f30" type="passenger" from="EXT_W_N07_in" to="N08_EXT_S_N08" begin="0" end="3600" vehsPerHour="19" departSpeed="max" departLane="best"/>
    <flow id="f31" type="motorcycle" from="EXT_W_N07_in" to="N08_EXT_S_N08" begin="0" end="3600" vehsPerHour="14" departSpeed="max" departLane="best"/>
    <flow id="f32" type="bus" from="EXT_W_N07_in" to="N08_EXT_S_N08" begin="0" end="3600" vehsPerHour="1" departSpeed="max" departLane="best"/>
    <flow id="f33" type="passenger" from="EXT_S_N08_in" to="N07_EXT_W_N07" begin="0" end="3600" vehsPerHour="19" departSpeed="max" departLane="best"/>
    <flow id="f34" type="motorcycle" from="EXT_S_N08_in" to="N07_EXT_W_N07" begin="0" end="3600" vehsPerHour="14" departSpeed="max" departLane="best"/>
    <flow id="f35" type="bus" from="EXT_S_N08_in" to="N07_EXT_W_N07" begin="0" end="3600" vehsPerHour="1" departSpeed="max" departLane="best"/>
    <flow id="f36" type="passenger" from="EXT_W_N01_in" to="N05_SRC_LDT_S" begin="0" end="3600" vehsPerHour="13" departSpeed="max" departLane="best"/>
    <flow id="f37" type="motorcycle" from="EXT_W_N01_in" to="N05_SRC_LDT_S" begin="0" end="3600" vehsPerHour="10" departSpeed="max" departLane="best"/>
    <flow id="f38" type="bus" from="EXT_W_N01_in" to="N05_SRC_LDT_S" begin="0" end="3600" vehsPerHour="1" departSpeed="max" departLane="best"/>
    <flow id="f39" type="passenger" from="EXT_E_N03_in" to="N05_SRC_LDT_S" begin="0" end="3600" vehsPerHour="13" departSpeed="max" departLane="best"/>
    <flow id="f40" type="motorcycle" from="EXT_E_N03_in" to="N05_SRC_LDT_S" begin="0" end="3600" vehsPerHour="10" departSpeed="max" departLane="best"/>
    <flow id="f41" type="bus" from="EXT_E_N03_in" to="N05_SRC_LDT_S" begin="0" end="3600" vehsPerHour="1" departSpeed="max" departLane="best"/>
    <flow id="f42" type="passenger" from="EXT_N_N03_in" to="N01_EXT_W_N01" begin="0" end="3600" vehsPerHour="11" departSpeed="max" departLane="best"/>
    <flow id="f43" type="motorcycle" from="EXT_N_N03_in" to="N01_EXT_W_N01" begin="0" end="3600" vehsPerHour="8" departSpeed="max" departLane="best"/>
    <flow id="f44" type="bus" from="EXT_N_N03_in" to="N01_EXT_W_N01" begin="0" end="3600" vehsPerHour="1" departSpeed="max" departLane="best"/>

</routes>