<?xml version="1.0" encoding="UTF-8"?>
<additional xmlns:xsi="http://www.w3.org/2001/XMLSchema-instance"
            xsi:noNamespaceSchemaLocation="http://sumo.dlr.de/xsd/additional_file.xsd">

    <!--
        E2 Detectors — UET map (15 ngã tư)
        pos="-1"   : tính từ cuối edge (sát vạch dừng)
        length="200": đo 200m queue
        freq="5"   : sync với delta_time của RL agent
        file="NUL" : không ghi file, đọc qua TraCI

        Detector ID format: e2_<edge_id>_<lane_index>
        Đặt trên TẤT CẢ incoming lanes của mỗi ngã tư.
    -->

    <!-- ══════════════════════════ N01 (ngã 3: Tây, Nam, Đông) ══════════════════════════ -->
    <!-- incoming: EXT_W_N01_in (2L), SRC_R1_AB_N01 (3L), SRC_V1_N01 (3L) -->
    <laneAreaDetector id="e2_EXT_W_N01_in_0"  lane="EXT_W_N01_in_0"  pos="-1" length="200" freq="5" file="NUL"/>
    <laneAreaDetector id="e2_EXT_W_N01_in_1"  lane="EXT_W_N01_in_1"  pos="-1" length="200" freq="5" file="NUL"/>

    <laneAreaDetector id="e2_SRC_R1_AB_N01_0" lane="SRC_R1_AB_N01_0" pos="-1" length="200" freq="5" file="NUL"/>
    <laneAreaDetector id="e2_SRC_R1_AB_N01_1" lane="SRC_R1_AB_N01_1" pos="-1" length="200" freq="5" file="NUL"/>
    <laneAreaDetector id="e2_SRC_R1_AB_N01_2" lane="SRC_R1_AB_N01_2" pos="-1" length="200" freq="5" file="NUL"/>

    <laneAreaDetector id="e2_SRC_V1_N01_0"    lane="SRC_V1_N01_0"    pos="-1" length="200" freq="5" file="NUL"/>
    <laneAreaDetector id="e2_SRC_V1_N01_1"    lane="SRC_V1_N01_1"    pos="-1" length="200" freq="5" file="NUL"/>
    <laneAreaDetector id="e2_SRC_V1_N01_2"    lane="SRC_V1_N01_2"    pos="-1" length="200" freq="5" file="NUL"/>

    <!-- ══════════════════════════ N02 (ngã 3: Tây, Nam, Đông) ══════════════════════════ -->
    <!-- incoming: SRC_R1_AB_N02 (3L), SRC_R1_BC_N02 (3L), SRC_V2_N02 (3L) -->
    <laneAreaDetector id="e2_SRC_R1_AB_N02_0" lane="SRC_R1_AB_N02_0" pos="-1" length="200" freq="5" file="NUL"/>
    <laneAreaDetector id="e2_SRC_R1_AB_N02_1" lane="SRC_R1_AB_N02_1" pos="-1" length="200" freq="5" file="NUL"/>
    <laneAreaDetector id="e2_SRC_R1_AB_N02_2" lane="SRC_R1_AB_N02_2" pos="-1" length="200" freq="5" file="NUL"/>

    <laneAreaDetector id="e2_SRC_R1_BC_N02_0" lane="SRC_R1_BC_N02_0" pos="-1" length="200" freq="5" file="NUL"/>
    <laneAreaDetector id="e2_SRC_R1_BC_N02_1" lane="SRC_R1_BC_N02_1" pos="-1" length="200" freq="5" file="NUL"/>
    <laneAreaDetector id="e2_SRC_R1_BC_N02_2" lane="SRC_R1_BC_N02_2" pos="-1" length="200" freq="5" file="NUL"/>

    <laneAreaDetector id="e2_SRC_V2_N02_0"    lane="SRC_V2_N02_0"    pos="-1" length="200" freq="5" file="NUL"/>
    <laneAreaDetector id="e2_SRC_V2_N02_1"    lane="SRC_V2_N02_1"    pos="-1" length="200" freq="5" file="NUL"/>
    <laneAreaDetector id="e2_SRC_V2_N02_2"    lane="SRC_V2_N02_2"    pos="-1" length="200" freq="5" file="NUL"/>

    <!-- ══════════════════════════ N03 (ngã 4) ══════════════════════════ -->
    <!-- incoming: EXT_N_N03_in (2L), SRC_R1_BC_N03 (3L), SRC_R1_CD_N03 (3L), SRC_V3N_N03 (2L) -->
    <!-- Lưu ý: N03 không có SRC từ dưới lên vì N07 là ngã 3 (không đến N03 từ N07 trực tiếp) -->
    <laneAreaDetector id="e2_EXT_N_N03_in_0"  lane="EXT_N_N03_in_0"  pos="-1" length="200" freq="5" file="NUL"/>
    <laneAreaDetector id="e2_EXT_N_N03_in_1"  lane="EXT_N_N03_in_1"  pos="-1" length="200" freq="5" file="NUL"/>

    <laneAreaDetector id="e2_SRC_R1_BC_N03_0" lane="SRC_R1_BC_N03_0" pos="-1" length="200" freq="5" file="NUL"/>
    <laneAreaDetector id="e2_SRC_R1_BC_N03_1" lane="SRC_R1_BC_N03_1" pos="-1" length="200" freq="5" file="NUL"/>
    <laneAreaDetector id="e2_SRC_R1_BC_N03_2" lane="SRC_R1_BC_N03_2" pos="-1" length="200" freq="5" file="NUL"/>

    <laneAreaDetector id="e2_SRC_R1_CD_N03_0" lane="SRC_R1_CD_N03_0" pos="-1" length="200" freq="5" file="NUL"/>
    <laneAreaDetector id="e2_SRC_R1_CD_N03_1" lane="SRC_R1_CD_N03_1" pos="-1" length="200" freq="5" file="NUL"/>
    <laneAreaDetector id="e2_SRC_R1_CD_N03_2" lane="SRC_R1_CD_N03_2" pos="-1" length="200" freq="5" file="NUL"/>

    <laneAreaDetector id="e2_SRC_V3N_N03_0"   lane="SRC_V3N_N03_0"   pos="-1" length="200" freq="5" file="NUL"/>
    <laneAreaDetector id="e2_SRC_V3N_N03_1"   lane="SRC_V3N_N03_1"   pos="-1" length="200" freq="5" file="NUL"/>

    <!-- ══════════════════════════ N04 (ngã 4) ══════════════════════════ -->
    <!-- incoming: EXT_N_N04_in (2L), SRC_R1_CD_N04 (3L), SRC_R1_DE_N04 (3L), SRC_V4N_N04 (2L) -->
    <laneAreaDetector id="e2_EXT_N_N04_in_0"  lane="EXT_N_N04_in_0"  pos="-1" length="200" freq="5" file="NUL"/>
    <laneAreaDetector id="e2_EXT_N_N04_in_1"  lane="EXT_N_N04_in_1"  pos="-1" length="200" freq="5" file="NUL"/>

    <laneAreaDetector id="e2_SRC_R1_CD_N04_0" lane="SRC_R1_CD_N04_0" pos="-1" length="200" freq="5" file="NUL"/>
    <laneAreaDetector id="e2_SRC_R1_CD_N04_1" lane="SRC_R1_CD_N04_1" pos="-1" length="200" freq="5" file="NUL"/>
    <laneAreaDetector id="e2_SRC_R1_CD_N04_2" lane="SRC_R1_CD_N04_2" pos="-1" length="200" freq="5" file="NUL"/>

    <laneAreaDetector id="e2_SRC_R1_DE_N04_0" lane="SRC_R1_DE_N04_0" pos="-1" length="200" freq="5" file="NUL"/>
    <laneAreaDetector id="e2_SRC_R1_DE_N04_1" lane="SRC_R1_DE_N04_1" pos="-1" length="200" freq="5" file="NUL"/>
    <laneAreaDetector id="e2_SRC_R1_DE_N04_2" lane="SRC_R1_DE_N04_2" pos="-1" length="200" freq="5" file="NUL"/>

    <laneAreaDetector id="e2_SRC_V4N_N04_0"   lane="SRC_V4N_N04_0"   pos="-1" length="200" freq="5" file="NUL"/>
    <laneAreaDetector id="e2_SRC_V4N_N04_1"   lane="SRC_V4N_N04_1"   pos="-1" length="200" freq="5" file="NUL"/>

    <!-- ══════════════════════════ N05 (ngã 4) ══════════════════════════ -->
    <!-- incoming: EXT_N_N05_in (2L), SRC_R1_DE_N05 (3L), SRC_R1_EF_N05 (3L), SRC_V5N_N05 (2L) -->
    <laneAreaDetector id="e2_EXT_N_N05_in_0"  lane="EXT_N_N05_in_0"  pos="-1" length="200" freq="5" file="NUL"/>
    <laneAreaDetector id="e2_EXT_N_N05_in_1"  lane="EXT_N_N05_in_1"  pos="-1" length="200" freq="5" file="NUL"/>

    <laneAreaDetector id="e2_SRC_R1_DE_N05_0" lane="SRC_R1_DE_N05_0" pos="-1" length="200" freq="5" file="NUL"/>
    <laneAreaDetector id="e2_SRC_R1_DE_N05_1" lane="SRC_R1_DE_N05_1" pos="-1" length="200" freq="5" file="NUL"/>
    <laneAreaDetector id="e2_SRC_R1_DE_N05_2" lane="SRC_R1_DE_N05_2" pos="-1" length="200" freq="5" file="NUL"/>

    <laneAreaDetector id="e2_SRC_R1_EF_N05_0" lane="SRC_R1_EF_N05_0" pos="-1" length="200" freq="5" file="NUL"/>
    <laneAreaDetector id="e2_SRC_R1_EF_N05_1" lane="SRC_R1_EF_N05_1" pos="-1" length="200" freq="5" file="NUL"/>
    <laneAreaDetector id="e2_SRC_R1_EF_N05_2" lane="SRC_R1_EF_N05_2" pos="-1" length="200" freq="5" file="NUL"/>

    <laneAreaDetector id="e2_SRC_V5N_N05_0"   lane="SRC_V5N_N05_0"   pos="-1" length="200" freq="5" file="NUL"/>
    <laneAreaDetector id="e2_SRC_V5N_N05_1"   lane="SRC_V5N_N05_1"   pos="-1" length="200" freq="5" file="NUL"/>

    <!-- ══════════════════════════ N06 (ngã 4) ══════════════════════════ -->
    <!-- incoming: EXT_N_N06_in (2L), EXT_E_N06_in (2L), SRC_R1_EF_N06 (3L), SRC_V6_N06 (3L) -->
    <laneAreaDetector id="e2_EXT_N_N06_in_0"  lane="EXT_N_N06_in_0"  pos="-1" length="200" freq="5" file="NUL"/>
    <laneAreaDetector id="e2_EXT_N_N06_in_1"  lane="EXT_N_N06_in_1"  pos="-1" length="200" freq="5" file="NUL"/>

    <laneAreaDetector id="e2_EXT_E_N06_in_0"  lane="EXT_E_N06_in_0"  pos="-1" length="200" freq="5" file="NUL"/>
    <laneAreaDetector id="e2_EXT_E_N06_in_1"  lane="EXT_E_N06_in_1"  pos="-1" length="200" freq="5" file="NUL"/>

    <laneAreaDetector id="e2_SRC_R1_EF_N06_0" lane="SRC_R1_EF_N06_0" pos="-1" length="200" freq="5" file="NUL"/>
    <laneAreaDetector id="e2_SRC_R1_EF_N06_1" lane="SRC_R1_EF_N06_1" pos="-1" length="200" freq="5" file="NUL"/>
    <laneAreaDetector id="e2_SRC_R1_EF_N06_2" lane="SRC_R1_EF_N06_2" pos="-1" length="200" freq="5" file="NUL"/>

    <laneAreaDetector id="e2_SRC_V6_N06_0"    lane="SRC_V6_N06_0"    pos="-1" length="200" freq="5" file="NUL"/>
    <laneAreaDetector id="e2_SRC_V6_N06_1"    lane="SRC_V6_N06_1"    pos="-1" length="200" freq="5" file="NUL"/>
    <laneAreaDetector id="e2_SRC_V6_N06_2"    lane="SRC_V6_N06_2"    pos="-1" length="200" freq="5" file="NUL"/>

    <!-- ══════════════════════════ N07 (ngã 3: Bắc, Đông, Nam) ══════════════════════════ -->
    <!-- incoming: SRC_V3N_N07 (2L), SRC_RM_AB_N07 (2L), SRC_V3S_N07 (2L) -->
    <laneAreaDetector id="e2_SRC_V3N_N07_0"   lane="SRC_V3N_N07_0"   pos="-1" length="200" freq="5" file="NUL"/>
    <laneAreaDetector id="e2_SRC_V3N_N07_1"   lane="SRC_V3N_N07_1"   pos="-1" length="200" freq="5" file="NUL"/>

    <laneAreaDetector id="e2_SRC_RM_AB_N07_0" lane="SRC_RM_AB_N07_0" pos="-1" length="200" freq="5" file="NUL"/>
    <laneAreaDetector id="e2_SRC_RM_AB_N07_1" lane="SRC_RM_AB_N07_1" pos="-1" length="200" freq="5" file="NUL"/>

    <laneAreaDetector id="e2_SRC_V3S_N07_0"   lane="SRC_V3S_N07_0"   pos="-1" length="200" freq="5" file="NUL"/>
    <laneAreaDetector id="e2_SRC_V3S_N07_1"   lane="SRC_V3S_N07_1"   pos="-1" length="200" freq="5" file="NUL"/>

    <!-- ══════════════════════════ N08 (ngã 4) ══════════════════════════ -->
    <!-- incoming: SRC_V4N_N08 (2L), SRC_RM_AB_N08 (2L), SRC_RM_BC_N08 (2L), SRC_V4S_N08 (2L) -->
    <laneAreaDetector id="e2_SRC_V4N_N08_0"   lane="SRC_V4N_N08_0"   pos="-1" length="200" freq="5" file="NUL"/>
    <laneAreaDetector id="e2_SRC_V4N_N08_1"   lane="SRC_V4N_N08_1"   pos="-1" length="200" freq="5" file="NUL"/>

    <laneAreaDetector id="e2_SRC_RM_AB_N08_0" lane="SRC_RM_AB_N08_0" pos="-1" length="200" freq="5" file="NUL"/>
    <laneAreaDetector id="e2_SRC_RM_AB_N08_1" lane="SRC_RM_AB_N08_1" pos="-1" length="200" freq="5" file="NUL"/>

    <laneAreaDetector id="e2_SRC_RM_BC_N08_0" lane="SRC_RM_BC_N08_0" pos="-1" length="200" freq="5" file="NUL"/>
    <laneAreaDetector id="e2_SRC_RM_BC_N08_1" lane="SRC_RM_BC_N08_1" pos="-1" length="200" freq="5" file="NUL"/>

    <laneAreaDetector id="e2_SRC_V4S_N08_0"   lane="SRC_V4S_N08_0"   pos="-1" length="200" freq="5" file="NUL"/>
    <laneAreaDetector id="e2_SRC_V4S_N08_1"   lane="SRC_V4S_N08_1"   pos="-1" length="200" freq="5" file="NUL"/>

    <!-- ══════════════════════════ N09 (ngã 4) ══════════════════════════ -->
    <!-- incoming: SRC_V5N_N09 (2L), SRC_RM_BC_N09 (2L), SRC_RM_CD_N09 (2L), SRC_V5S_N09 (2L) -->
    <laneAreaDetector id="e2_SRC_V5N_N09_0"   lane="SRC_V5N_N09_0"   pos="-1" length="200" freq="5" file="NUL"/>
    <laneAreaDetector id="e2_SRC_V5N_N09_1"   lane="SRC_V5N_N09_1"   pos="-1" length="200" freq="5" file="NUL"/>

    <laneAreaDetector id="e2_SRC_RM_BC_N09_0" lane="SRC_RM_BC_N09_0" pos="-1" length="200" freq="5" file="NUL"/>
    <laneAreaDetector id="e2_SRC_RM_BC_N09_1" lane="SRC_RM_BC_N09_1" pos="-1" length="200" freq="5" file="NUL"/>

    <laneAreaDetector id="e2_SRC_RM_CD_N09_0" lane="SRC_RM_CD_N09_0" pos="-1" length="200" freq="5" file="NUL"/>
    <laneAreaDetector id="e2_SRC_RM_CD_N09_1" lane="SRC_RM_CD_N09_1" pos="-1" length="200" freq="5" file="NUL"/>

    <laneAreaDetector id="e2_SRC_V5S_N09_0"   lane="SRC_V5S_N09_0"   pos="-1" length="200" freq="5" file="NUL"/>
    <laneAreaDetector id="e2_SRC_V5S_N09_1"   lane="SRC_V5S_N09_1"   pos="-1" length="200" freq="5" file="NUL"/>

    <!-- ══════════════════════════ N10 (ngã 4) ══════════════════════════ -->
    <!-- incoming: SRC_RM_CD_N10 (2L), EXT_E_N10_in (2L), SRC_V6_N10 (3L), SRC_V10_N10 (2L) -->
    <laneAreaDetector id="e2_SRC_RM_CD_N10_0" lane="SRC_RM_CD_N10_0" pos="-1" length="200" freq="5" file="NUL"/>
    <laneAreaDetector id="e2_SRC_RM_CD_N10_1" lane="SRC_RM_CD_N10_1" pos="-1" length="200" freq="5" file="NUL"/>

    <laneAreaDetector id="e2_EXT_E_N10_in_0"  lane="EXT_E_N10_in_0"  pos="-1" length="200" freq="5" file="NUL"/>
    <laneAreaDetector id="e2_EXT_E_N10_in_1"  lane="EXT_E_N10_in_1"  pos="-1" length="200" freq="5" file="NUL"/>

    <laneAreaDetector id="e2_SRC_V6_N10_0"    lane="SRC_V6_N10_0"    pos="-1" length="200" freq="5" file="NUL"/>
    <laneAreaDetector id="e2_SRC_V6_N10_1"    lane="SRC_V6_N10_1"    pos="-1" length="200" freq="5" file="NUL"/>
    <laneAreaDetector id="e2_SRC_V6_N10_2"    lane="SRC_V6_N10_2"    pos="-1" length="200" freq="5" file="NUL"/>

    <laneAreaDetector id="e2_EXT_S_N10_in_0"  lane="EXT_S_N10_in_0"  pos="-1" length="200" freq="5" file="NUL"/>
    <laneAreaDetector id="e2_EXT_S_N10_in_1"  lane="EXT_S_N10_in_1"  pos="-1" length="200" freq="5" file="NUL"/>

    <!-- ══════════════════════════ N11 (ngã 4) ══════════════════════════ -->
    <!-- incoming: EXT_W_N11_in (2L), EXT_S_N11_in (2L), SRC_R2_AB_N11 (3L), SRC_V1_N11 (3L) -->
    <laneAreaDetector id="e2_EXT_W_N11_in_0"  lane="EXT_W_N11_in_0"  pos="-1" length="200" freq="5" file="NUL"/>
    <laneAreaDetector id="e2_EXT_W_N11_in_1"  lane="EXT_W_N11_in_1"  pos="-1" length="200" freq="5" file="NUL"/>

    <laneAreaDetector id="e2_EXT_S_N11_in_0"  lane="EXT_S_N11_in_0"  pos="-1" length="200" freq="5" file="NUL"/>
    <laneAreaDetector id="e2_EXT_S_N11_in_1"  lane="EXT_S_N11_in_1"  pos="-1" length="200" freq="5" file="NUL"/>

    <laneAreaDetector id="e2_SRC_R2_AB_N11_0" lane="SRC_R2_AB_N11_0" pos="-1" length="200" freq="5" file="NUL"/>
    <laneAreaDetector id="e2_SRC_R2_AB_N11_1" lane="SRC_R2_AB_N11_1" pos="-1" length="200" freq="5" file="NUL"/>
    <laneAreaDetector id="e2_SRC_R2_AB_N11_2" lane="SRC_R2_AB_N11_2" pos="-1" length="200" freq="5" file="NUL"/>

    <laneAreaDetector id="e2_SRC_V1_N11_0"    lane="SRC_V1_N11_0"    pos="-1" length="200" freq="5" file="NUL"/>
    <laneAreaDetector id="e2_SRC_V1_N11_1"    lane="SRC_V1_N11_1"    pos="-1" length="200" freq="5" file="NUL"/>
    <laneAreaDetector id="e2_SRC_V1_N11_2"    lane="SRC_V1_N11_2"    pos="-1" length="200" freq="5" file="NUL"/>

    <!-- ══════════════════════════ N12 (ngã 3: Tây, Bắc, Đông) ══════════════════════════ -->
    <!-- incoming: SRC_R2_AB_N12 (3L), SRC_V2_N12 (3L), SRC_R2_BC_N12 (3L) -->
    <laneAreaDetector id="e2_SRC_R2_AB_N12_0" lane="SRC_R2_AB_N12_0" pos="-1" length="200" freq="5" file="NUL"/>
    <laneAreaDetector id="e2_SRC_R2_AB_N12_1" lane="SRC_R2_AB_N12_1" pos="-1" length="200" freq="5" file="NUL"/>
    <laneAreaDetector id="e2_SRC_R2_AB_N12_2" lane="SRC_R2_AB_N12_2" pos="-1" length="200" freq="5" file="NUL"/>

    <laneAreaDetector id="e2_SRC_V2_N12_0"    lane="SRC_V2_N12_0"    pos="-1" length="200" freq="5" file="NUL"/>
    <laneAreaDetector id="e2_SRC_V2_N12_1"    lane="SRC_V2_N12_1"    pos="-1" length="200" freq="5" file="NUL"/>
    <laneAreaDetector id="e2_SRC_V2_N12_2"    lane="SRC_V2_N12_2"    pos="-1" length="200" freq="5" file="NUL"/>

    <laneAreaDetector id="e2_SRC_R2_BC_N12_0" lane="SRC_R2_BC_N12_0" pos="-1" length="200" freq="5" file="NUL"/>
    <laneAreaDetector id="e2_SRC_R2_BC_N12_1" lane="SRC_R2_BC_N12_1" pos="-1" length="200" freq="5" file="NUL"/>
    <laneAreaDetector id="e2_SRC_R2_BC_N12_2" lane="SRC_R2_BC_N12_2" pos="-1" length="200" freq="5" file="NUL"/>

    <!-- ══════════════════════════ N13 (ngã 4) ══════════════════════════ -->
    <!-- incoming: SRC_V3S_N13 (2L), SRC_R2_BC_N13 (3L), SRC_R2_CD_N13 (3L), EXT_S_N13_in (2L) -->
    <laneAreaDetector id="e2_SRC_V3S_N13_0"   lane="SRC_V3S_N13_0"   pos="-1" length="200" freq="5" file="NUL"/>
    <laneAreaDetector id="e2_SRC_V3S_N13_1"   lane="SRC_V3S_N13_1"   pos="-1" length="200" freq="5" file="NUL"/>

    <laneAreaDetector id="e2_SRC_R2_BC_N13_0" lane="SRC_R2_BC_N13_0" pos="-1" length="200" freq="5" file="NUL"/>
    <laneAreaDetector id="e2_SRC_R2_BC_N13_1" lane="SRC_R2_BC_N13_1" pos="-1" length="200" freq="5" file="NUL"/>
    <laneAreaDetector id="e2_SRC_R2_BC_N13_2" lane="SRC_R2_BC_N13_2" pos="-1" length="200" freq="5" file="NUL"/>

    <laneAreaDetector id="e2_SRC_R2_CD_N13_0" lane="SRC_R2_CD_N13_0" pos="-1" length="200" freq="5" file="NUL"/>
    <laneAreaDetector id="e2_SRC_R2_CD_N13_1" lane="SRC_R2_CD_N13_1" pos="-1" length="200" freq="5" file="NUL"/>
    <laneAreaDetector id="e2_SRC_R2_CD_N13_2" lane="SRC_R2_CD_N13_2" pos="-1" length="200" freq="5" file="NUL"/>

    <laneAreaDetector id="e2_EXT_S_N13_in_0"  lane="EXT_S_N13_in_0"  pos="-1" length="200" freq="5" file="NUL"/>
    <laneAreaDetector id="e2_EXT_S_N13_in_1"  lane="EXT_S_N13_in_1"  pos="-1" length="200" freq="5" file="NUL"/>

    <!-- ══════════════════════════ N14 (ngã 4) ══════════════════════════ -->
    <!-- incoming: SRC_V4S_N14 (2L), SRC_R2_CD_N14 (3L), SRC_R2_DE_N14 (3L), EXT_S_N14_in (2L) -->
    <laneAreaDetector id="e2_SRC_V4S_N14_0"   lane="SRC_V4S_N14_0"   pos="-1" length="200" freq="5" file="NUL"/>
    <laneAreaDetector id="e2_SRC_V4S_N14_1"   lane="SRC_V4S_N14_1"   pos="-1" length="200" freq="5" file="NUL"/>

    <laneAreaDetector id="e2_SRC_R2_CD_N14_0" lane="SRC_R2_CD_N14_0" pos="-1" length="200" freq="5" file="NUL"/>
    <laneAreaDetector id="e2_SRC_R2_CD_N14_1" lane="SRC_R2_CD_N14_1" pos="-1" length="200" freq="5" file="NUL"/>
    <laneAreaDetector id="e2_SRC_R2_CD_N14_2" lane="SRC_R2_CD_N14_2" pos="-1" length="200" freq="5" file="NUL"/>

    <laneAreaDetector id="e2_SRC_R2_DE_N14_0" lane="SRC_R2_DE_N14_0" pos="-1" length="200" freq="5" file="NUL"/>
    <laneAreaDetector id="e2_SRC_R2_DE_N14_1" lane="SRC_R2_DE_N14_1" pos="-1" length="200" freq="5" file="NUL"/>
    <laneAreaDetector id="e2_SRC_R2_DE_N14_2" lane="SRC_R2_DE_N14_2" pos="-1" length="200" freq="5" file="NUL"/>

    <laneAreaDetector id="e2_EXT_S_N14_in_0"  lane="EXT_S_N14_in_0"  pos="-1" length="200" freq="5" file="NUL"/>
    <laneAreaDetector id="e2_EXT_S_N14_in_1"  lane="EXT_S_N14_in_1"  pos="-1" length="200" freq="5" file="NUL"/>

    <!-- ══════════════════════════ N15 (ngã 4) ══════════════════════════ -->
    <!-- incoming: SRC_V5S_N15 (2L), SRC_R2_DE_N15 (3L), EXT_E_N15_in (2L),
                   SRC_V10_N15 (2L), EXT_S_N15_in (2L) -->
    <laneAreaDetector id="e2_SRC_V5S_N15_0"   lane="SRC_V5S_N15_0"   pos="-1" length="200" freq="5" file="NUL"/>
    <laneAreaDetector id="e2_SRC_V5S_N15_1"   lane="SRC_V5S_N15_1"   pos="-1" length="200" freq="5" file="NUL"/>

    <laneAreaDetector id="e2_SRC_R2_DE_N15_0" lane="SRC_R2_DE_N15_0" pos="-1" length="200" freq="5" file="NUL"/>
    <laneAreaDetector id="e2_SRC_R2_DE_N15_1" lane="SRC_R2_DE_N15_1" pos="-1" length="200" freq="5" file="NUL"/>
    <laneAreaDetector id="e2_SRC_R2_DE_N15_2" lane="SRC_R2_DE_N15_2" pos="-1" length="200" freq="5" file="NUL"/>

    <laneAreaDetector id="e2_EXT_E_N15_in_0"  lane="EXT_E_N15_in_0"  pos="-1" length="200" freq="5" file="NUL"/>
    <laneAreaDetector id="e2_EXT_E_N15_in_1"  lane="EXT_E_N15_in_1"  pos="-1" length="200" freq="5" file="NUL"/>



    <laneAreaDetector id="e2_EXT_S_N15_in_0"  lane="EXT_S_N15_in_0"  pos="-1" length="200" freq="5" file="NUL"/>
    <laneAreaDetector id="e2_EXT_S_N15_in_1"  lane="EXT_S_N15_in_1"  pos="-1" length="200" freq="5" file="NUL"/>

</additional>