<?xml version="1.0" encoding="UTF-8"?>

<!-- generated on 2026-06-11T03:29:45.371620+07:00 by Eclipse SUMO netconvert 1.27.0
<netconvertConfiguration xmlns:xsi="http://www.w3.org/2001/XMLSchema-instance" xsi:noNamespaceSchemaLocation="http://sumo.dlr.de/xsd/netconvertConfiguration.xsd">

    <input>
        <node-files value="2x2.nod.xml"/>
        <edge-files value="2x2.edg.xml"/>
        <type-files value="2x2.typ.xml"/>
    </input>

    <output>
        <output-file value="2x2.net.xml"/>
    </output>

    <tls_building>
        <tls.default-type value="actuated"/>
    </tls_building>

    <junctions>
        <no-turnarounds value="true"/>
        <junctions.corner-detail value="5"/>
    </junctions>

</netconvertConfiguration>
-->

<net version="1.20" junctionCornerDetail="5" limitTurnSpeed="5.50" xmlns:xsi="http://www.w3.org/2001/XMLSchema-instance" xsi:noNamespaceSchemaLocation="http://sumo.dlr.de/xsd/net_file.xsd">

    <location netOffset="500.00,500.00" convBoundary="0.00,0.00,1000.00,1000.00" origBoundary="-500.00,-500.00,500.00,500.00" projParameter="!"/>

    <type id="alley" priority="8" numLanes="2" speed="8.33" allow="passenger motorcycle"/>
    <type id="main_road" priority="12" numLanes="2" speed="13.89" allow="passenger bus motorcycle"/>
    <type id="outskirts" priority="10" numLanes="2" speed="19.44" allow="passenger bus motorcycle"/>

    <edge id=":N01_0" function="internal">
        <lane id=":N01_0_0" index="0" allow="passenger bus motorcycle" speed="6.51" length="9.03" shape="295.20,710.40 294.85,707.95 293.80,706.20 292.05,705.15 289.60,704.80"/>
    </edge>
    <edge id=":N01_1" function="internal">
        <lane id=":N01_1_0" index="0" allow="passenger motorcycle" speed="13.89" length="20.80" shape="295.20,710.40 295.20,689.60"/>
        <lane id=":N01_1_1" index="1" allow="passenger motorcycle" speed="13.89" length="20.80" shape="298.40,710.40 298.40,689.60"/>
    </edge>
    <edge id=":N01_3" function="internal">
        <lane id=":N01_3_0" index="0" allow="passenger bus motorcycle" speed="9.26" length="5.01" shape="298.40,710.40 299.11,705.44"/>
    </edge>
    <edge id=":N01_16" function="internal">
        <lane id=":N01_16_0" index="0" allow="passenger bus motorcycle" speed="9.26" length="14.34" shape="299.11,705.44 299.15,705.15 301.40,701.40 305.15,699.15 310.40,698.40"/>
    </edge>
    <edge id=":N01_4" function="internal">
        <lane id=":N01_4_0" index="0" allow="passenger bus motorcycle" speed="6.51" length="9.03" shape="310.40,704.80 307.95,705.15 306.20,706.20 305.15,707.95 304.80,710.40"/>
    </edge>
    <edge id=":N01_5" function="internal">
        <lane id=":N01_5_0" index="0" allow="passenger bus motorcycle" speed="16.66" length="20.80" shape="310.40,704.80 289.60,704.80"/>
        <lane id=":N01_5_1" index="1" allow="passenger bus motorcycle" speed="16.66" length="20.80" shape="310.40,701.60 289.60,701.60"/>
    </edge>
    <edge id=":N01_7" function="internal">
        <lane id=":N01_7_0" index="0" allow="passenger motorcycle" speed="9.26" length="5.01" shape="310.40,701.60 305.44,700.89"/>
    </edge>
    <edge id=":N01_17" function="internal">
        <lane id=":N01_17_0" index="0" allow="passenger motorcycle" speed="9.26" length="14.34" shape="305.44,700.89 305.15,700.85 301.40,698.60 299.15,694.85 298.40,689.60"/>
    </edge>
    <edge id=":N01_8" function="internal">
        <lane id=":N01_8_0" index="0" allow="passenger motorcycle" speed="6.51" length="9.03" shape="304.80,689.60 305.15,692.05 306.20,693.80 307.95,694.85 310.40,695.20"/>
    </edge>
    <edge id=":N01_9" function="internal">
        <lane id=":N01_9_0" index="0" allow="passenger motorcycle" speed="13.89" length="20.80" shape="304.80,689.60 304.80,710.40"/>
        <lane id=":N01_9_1" index="1" allow="passenger motorcycle" speed="13.89" length="20.80" shape="301.60,689.60 301.60,710.40"/>
    </edge>
    <edge id=":N01_11" function="internal">
        <lane id=":N01_11_0" index="0" allow="passenger motorcycle" speed="9.26" length="5.01" shape="301.60,689.60 300.89,694.56"/>
    </edge>
    <edge id=":N01_18" function="internal">
        <lane id=":N01_18_0" index="0" allow="passenger motorcycle" speed="9.26" length="14.34" shape="300.89,694.56 300.85,694.85 298.60,698.60 294.85,700.85 289.60,701.60"/>
    </edge>
    <edge id=":N01_12" function="internal">
        <lane id=":N01_12_0" index="0" allow="passenger motorcycle" speed="6.51" length="9.03" shape="289.60,695.20 292.05,694.85 293.80,693.80 294.85,692.05 295.20,689.60"/>
    </edge>
    <edge id=":N01_13" function="internal">
        <lane id=":N01_13_0" index="0" allow="passenger bus motorcycle" speed="16.66" length="20.80" shape="289.60,695.20 310.40,695.20"/>
        <lane id=":N01_13_1" index="1" allow="passenger bus motorcycle" speed="16.66" length="20.80" shape="289.60,698.40 310.40,698.40"/>
    </edge>
    <edge id=":N01_15" function="internal">
        <lane id=":N01_15_0" index="0" allow="passenger bus motorcycle" speed="9.26" length="5.01" shape="289.60,698.40 294.56,699.11"/>
    </edge>
    <edge id=":N01_19" function="internal">
        <lane id=":N01_19_0" index="0" allow="passenger bus motorcycle" speed="9.26" length="14.34" shape="294.56,699.11 294.85,699.15 298.60,701.40 300.85,705.15 301.60,710.40"/>
    </edge>
    <edge id=":N02_0" function="internal">
        <lane id=":N02_0_0" index="0" allow="passenger bus motorcycle" speed="6.51" length="9.03" shape="695.20,710.40 694.85,707.95 693.80,706.20 692.05,705.15 689.60,704.80"/>
    </edge>
    <edge id=":N02_1" function="internal">
        <lane id=":N02_1_0" index="0" allow="passenger motorcycle" speed="13.89" length="20.80" shape="695.20,710.40 695.20,689.60"/>
        <lane id=":N02_1_1" index="1" allow="passenger motorcycle" speed="13.89" length="20.80" shape="698.40,710.40 698.40,689.60"/>
    </edge>
    <edge id=":N02_3" function="internal">
        <lane id=":N02_3_0" index="0" allow="passenger bus motorcycle" speed="9.26" length="5.01" shape="698.40,710.40 699.11,705.44"/>
    </edge>
    <edge id=":N02_16" function="internal">
        <lane id=":N02_16_0" index="0" allow="passenger bus motorcycle" speed="9.26" length="14.34" shape="699.11,705.44 699.15,705.15 701.40,701.40 705.15,699.15 710.40,698.40"/>
    </edge>
    <edge id=":N02_4" function="internal">
        <lane id=":N02_4_0" index="0" allow="passenger bus motorcycle" speed="6.51" length="9.03" shape="710.40,704.80 707.95,705.15 706.20,706.20 705.15,707.95 704.80,710.40"/>
    </edge>
    <edge id=":N02_5" function="internal">
        <lane id=":N02_5_0" index="0" allow="passenger bus motorcycle" speed="16.66" length="20.80" shape="710.40,704.80 689.60,704.80"/>
        <lane id=":N02_5_1" index="1" allow="passenger bus motorcycle" speed="16.66" length="20.80" shape="710.40,701.60 689.60,701.60"/>
    </edge>
    <edge id=":N02_7" function="internal">
        <lane id=":N02_7_0" index="0" allow="passenger motorcycle" speed="9.26" length="5.01" shape="710.40,701.60 705.44,700.89"/>
    </edge>
    <edge id=":N02_17" function="internal">
        <lane id=":N02_17_0" index="0" allow="passenger motorcycle" speed="9.26" length="14.34" shape="705.44,700.89 705.15,700.85 701.40,698.60 699.15,694.85 698.40,689.60"/>
    </edge>
    <edge id=":N02_8" function="internal">
        <lane id=":N02_8_0" index="0" allow="passenger motorcycle" speed="6.51" length="9.03" shape="704.80,689.60 705.15,692.05 706.20,693.80 707.95,694.85 710.40,695.20"/>
    </edge>
    <edge id=":N02_9" function="internal">
        <lane id=":N02_9_0" index="0" allow="passenger motorcycle" speed="13.89" length="20.80" shape="704.80,689.60 704.80,710.40"/>
        <lane id=":N02_9_1" index="1" allow="passenger motorcycle" speed="13.89" length="20.80" shape="701.60,689.60 701.60,710.40"/>
    </edge>
    <edge id=":N02_11" function="internal">
        <lane id=":N02_11_0" index="0" allow="passenger motorcycle" speed="9.26" length="5.01" shape="701.60,689.60 700.89,694.56"/>
    </edge>
    <edge id=":N02_18" function="internal">
        <lane id=":N02_18_0" index="0" allow="passenger motorcycle" speed="9.26" length="14.34" shape="700.89,694.56 700.85,694.85 698.60,698.60 694.85,700.85 689.60,701.60"/>
    </edge>
    <edge id=":N02_12" function="internal">
        <lane id=":N02_12_0" index="0" allow="passenger motorcycle" speed="6.51" length="9.03" shape="689.60,695.20 692.05,694.85 693.80,693.80 694.85,692.05 695.20,689.60"/>
    </edge>
    <edge id=":N02_13" function="internal">
        <lane id=":N02_13_0" index="0" allow="passenger bus motorcycle" speed="16.66" length="20.80" shape="689.60,695.20 710.40,695.20"/>
        <lane id=":N02_13_1" index="1" allow="passenger bus motorcycle" speed="16.66" length="20.80" shape="689.60,698.40 710.40,698.40"/>
    </edge>
    <edge id=":N02_15" function="internal">
        <lane id=":N02_15_0" index="0" allow="passenger bus motorcycle" speed="9.26" length="5.01" shape="689.60,698.40 694.56,699.11"/>
    </edge>
    <edge id=":N02_19" function="internal">
        <lane id=":N02_19_0" index="0" allow="passenger bus motorcycle" speed="9.26" length="14.34" shape="694.56,699.11 694.85,699.15 698.60,701.40 700.85,705.15 701.60,710.40"/>
    </edge>
    <edge id=":N03_0" function="internal">
        <lane id=":N03_0_0" index="0" allow="passenger motorcycle" speed="6.51" length="9.03" shape="295.20,310.40 294.85,307.95 293.80,306.20 292.05,305.15 289.60,304.80"/>
    </edge>
    <edge id=":N03_1" function="internal">
        <lane id=":N03_1_0" index="0" allow="passenger motorcycle" speed="13.89" length="20.80" shape="295.20,310.40 295.20,289.60"/>
        <lane id=":N03_1_1" index="1" allow="passenger motorcycle" speed="13.89" length="20.80" shape="298.40,310.40 298.40,289.60"/>
    </edge>
    <edge id=":N03_3" function="internal">
        <lane id=":N03_3_0" index="0" allow="passenger motorcycle" speed="9.26" length="5.01" shape="298.40,310.40 299.11,305.44"/>
    </edge>
    <edge id=":N03_16" function="internal">
        <lane id=":N03_16_0" index="0" allow="passenger motorcycle" speed="9.26" length="14.34" shape="299.11,305.44 299.15,305.15 301.40,301.40 305.15,299.15 310.40,298.40"/>
    </edge>
    <edge id=":N03_4" function="internal">
        <lane id=":N03_4_0" index="0" allow="passenger motorcycle" speed="6.51" length="9.03" shape="310.40,304.80 307.95,305.15 306.20,306.20 305.15,307.95 304.80,310.40"/>
    </edge>
    <edge id=":N03_5" function="internal">
        <lane id=":N03_5_0" index="0" allow="passenger bus motorcycle" speed="16.66" length="20.80" shape="310.40,304.80 289.60,304.80"/>
        <lane id=":N03_5_1" index="1" allow="passenger bus motorcycle" speed="16.66" length="20.80" shape="310.40,301.60 289.60,301.60"/>
    </edge>
    <edge id=":N03_7" function="internal">
        <lane id=":N03_7_0" index="0" allow="passenger bus motorcycle" speed="9.26" length="5.01" shape="310.40,301.60 305.44,300.89"/>
    </edge>
    <edge id=":N03_17" function="internal">
        <lane id=":N03_17_0" index="0" allow="passenger bus motorcycle" speed="9.26" length="14.34" shape="305.44,300.89 305.15,300.85 301.40,298.60 299.15,294.85 298.40,289.60"/>
    </edge>
    <edge id=":N03_8" function="internal">
        <lane id=":N03_8_0" index="0" allow="passenger bus motorcycle" speed="6.51" length="9.03" shape="304.80,289.60 305.15,292.05 306.20,293.80 307.95,294.85 310.40,295.20"/>
    </edge>
    <edge id=":N03_9" function="internal">
        <lane id=":N03_9_0" index="0" allow="passenger motorcycle" speed="13.89" length="20.80" shape="304.80,289.60 304.80,310.40"/>
        <lane id=":N03_9_1" index="1" allow="passenger motorcycle" speed="13.89" length="20.80" shape="301.60,289.60 301.60,310.40"/>
    </edge>
    <edge id=":N03_11" function="internal">
        <lane id=":N03_11_0" index="0" allow="passenger bus motorcycle" speed="9.26" length="5.01" shape="301.60,289.60 300.89,294.56"/>
    </edge>
    <edge id=":N03_18" function="internal">
        <lane id=":N03_18_0" index="0" allow="passenger bus motorcycle" speed="9.26" length="14.34" shape="300.89,294.56 300.85,294.85 298.60,298.60 294.85,300.85 289.60,301.60"/>
    </edge>
    <edge id=":N03_12" function="internal">
        <lane id=":N03_12_0" index="0" allow="passenger bus motorcycle" speed="6.51" length="9.03" shape="289.60,295.20 292.05,294.85 293.80,293.80 294.85,292.05 295.20,289.60"/>
    </edge>
    <edge id=":N03_13" function="internal">
        <lane id=":N03_13_0" index="0" allow="passenger bus motorcycle" speed="16.66" length="20.80" shape="289.60,295.20 310.40,295.20"/>
        <lane id=":N03_13_1" index="1" allow="passenger bus motorcycle" speed="16.66" length="20.80" shape="289.60,298.40 310.40,298.40"/>
    </edge>
    <edge id=":N03_15" function="internal">
        <lane id=":N03_15_0" index="0" allow="passenger motorcycle" speed="9.26" length="5.01" shape="289.60,298.40 294.56,299.11"/>
    </edge>
    <edge id=":N03_19" function="internal">
        <lane id=":N03_19_0" index="0" allow="passenger motorcycle" speed="9.26" length="14.34" shape="294.56,299.11 294.85,299.15 298.60,301.40 300.85,305.15 301.60,310.40"/>
    </edge>
    <edge id=":N04_0" function="internal">
        <lane id=":N04_0_0" index="0" allow="passenger motorcycle" speed="6.51" length="9.03" shape="695.20,310.40 694.85,307.95 693.80,306.20 692.05,305.15 689.60,304.80"/>
    </edge>
    <edge id=":N04_1" function="internal">
        <lane id=":N04_1_0" index="0" allow="passenger motorcycle" speed="13.89" length="20.80" shape="695.20,310.40 695.20,289.60"/>
        <lane id=":N04_1_1" index="1" allow="passenger motorcycle" speed="13.89" length="20.80" shape="698.40,310.40 698.40,289.60"/>
    </edge>
    <edge id=":N04_3" function="internal">
        <lane id=":N04_3_0" index="0" allow="passenger motorcycle" speed="9.26" length="5.01" shape="698.40,310.40 699.11,305.44"/>
    </edge>
    <edge id=":N04_16" function="internal">
        <lane id=":N04_16_0" index="0" allow="passenger motorcycle" speed="9.26" length="14.34" shape="699.11,305.44 699.15,305.15 701.40,301.40 705.15,299.15 710.40,298.40"/>
    </edge>
    <edge id=":N04_4" function="internal">
        <lane id=":N04_4_0" index="0" allow="passenger motorcycle" speed="6.51" length="9.03" shape="710.40,304.80 707.95,305.15 706.20,306.20 705.15,307.95 704.80,310.40"/>
    </edge>
    <edge id=":N04_5" function="internal">
        <lane id=":N04_5_0" index="0" allow="passenger bus motorcycle" speed="16.66" length="20.80" shape="710.40,304.80 689.60,304.80"/>
        <lane id=":N04_5_1" index="1" allow="passenger bus motorcycle" speed="16.66" length="20.80" shape="710.40,301.60 689.60,301.60"/>
    </edge>
    <edge id=":N04_7" function="internal">
        <lane id=":N04_7_0" index="0" allow="passenger bus motorcycle" speed="9.26" length="5.01" shape="710.40,301.60 705.44,300.89"/>
    </edge>
    <edge id=":N04_17" function="internal">
        <lane id=":N04_17_0" index="0" allow="passenger bus motorcycle" speed="9.26" length="14.34" shape="705.44,300.89 705.15,300.85 701.40,298.60 699.15,294.85 698.40,289.60"/>
    </edge>
    <edge id=":N04_8" function="internal">
        <lane id=":N04_8_0" index="0" allow="passenger bus motorcycle" speed="6.51" length="9.03" shape="704.80,289.60 705.15,292.05 706.20,293.80 707.95,294.85 710.40,295.20"/>
    </edge>
    <edge id=":N04_9" function="internal">
        <lane id=":N04_9_0" index="0" allow="passenger motorcycle" speed="13.89" length="20.80" shape="704.80,289.60 704.80,310.40"/>
        <lane id=":N04_9_1" index="1" allow="passenger motorcycle" speed="13.89" length="20.80" shape="701.60,289.60 701.60,310.40"/>
    </edge>
    <edge id=":N04_11" function="internal">
        <lane id=":N04_11_0" index="0" allow="passenger bus motorcycle" speed="9.26" length="5.01" shape="701.60,289.60 700.89,294.56"/>
    </edge>
    <edge id=":N04_18" function="internal">
        <lane id=":N04_18_0" index="0" allow="passenger bus motorcycle" speed="9.26" length="14.34" shape="700.89,294.56 700.85,294.85 698.60,298.60 694.85,300.85 689.60,301.60"/>
    </edge>
    <edge id=":N04_12" function="internal">
        <lane id=":N04_12_0" index="0" allow="passenger bus motorcycle" speed="6.51" length="9.03" shape="689.60,295.20 692.05,294.85 693.80,293.80 694.85,292.05 695.20,289.60"/>
    </edge>
    <edge id=":N04_13" function="internal">
        <lane id=":N04_13_0" index="0" allow="passenger bus motorcycle" speed="16.66" length="20.80" shape="689.60,295.20 710.40,295.20"/>
        <lane id=":N04_13_1" index="1" allow="passenger bus motorcycle" speed="16.66" length="20.80" shape="689.60,298.40 710.40,298.40"/>
    </edge>
    <edge id=":N04_15" function="internal">
        <lane id=":N04_15_0" index="0" allow="passenger motorcycle" speed="9.26" length="5.01" shape="689.60,298.40 694.56,299.11"/>
    </edge>
    <edge id=":N04_19" function="internal">
        <lane id=":N04_19_0" index="0" allow="passenger motorcycle" speed="9.26" length="14.34" shape="694.56,299.11 694.85,299.15 698.60,301.40 700.85,305.15 701.60,310.40"/>
    </edge>
    <edge id=":SRC1_0" function="internal">
        <lane id=":SRC1_0_0" index="0" allow="passenger bus motorcycle" speed="13.89" length="0.10" shape="500.00,704.80 500.00,704.80"/>
        <lane id=":SRC1_0_1" index="1" allow="passenger bus motorcycle" speed="13.89" length="0.10" shape="500.00,701.60 500.00,701.60"/>
    </edge>
    <edge id=":SRC1_2" function="internal">
        <lane id=":SRC1_2_0" index="0" allow="passenger bus motorcycle" speed="13.89" length="0.10" shape="500.00,695.20 500.00,695.20"/>
        <lane id=":SRC1_2_1" index="1" allow="passenger bus motorcycle" speed="13.89" length="0.10" shape="500.00,698.40 500.00,698.40"/>
    </edge>
    <edge id=":SRC2_0" function="internal">
        <lane id=":SRC2_0_0" index="0" allow="passenger bus motorcycle" speed="13.89" length="0.10" shape="500.00,304.80 500.00,304.80"/>
        <lane id=":SRC2_0_1" index="1" allow="passenger bus motorcycle" speed="13.89" length="0.10" shape="500.00,301.60 500.00,301.60"/>
    </edge>
    <edge id=":SRC2_2" function="internal">
        <lane id=":SRC2_2_0" index="0" allow="passenger bus motorcycle" speed="13.89" length="0.10" shape="500.00,295.20 500.00,295.20"/>
        <lane id=":SRC2_2_1" index="1" allow="passenger bus motorcycle" speed="13.89" length="0.10" shape="500.00,298.40 500.00,298.40"/>
    </edge>
    <edge id=":SRC3_0" function="internal">
        <lane id=":SRC3_0_0" index="0" allow="passenger motorcycle" speed="8.33" length="0.10" shape="295.20,500.00 295.20,500.00"/>
        <lane id=":SRC3_0_1" index="1" allow="passenger motorcycle" speed="8.33" length="0.10" shape="298.40,500.00 298.40,500.00"/>
    </edge>
    <edge id=":SRC3_2" function="internal">
        <lane id=":SRC3_2_0" index="0" allow="passenger motorcycle" speed="8.33" length="0.10" shape="304.80,500.00 304.80,500.00"/>
        <lane id=":SRC3_2_1" index="1" allow="passenger motorcycle" speed="8.33" length="0.10" shape="301.60,500.00 301.60,500.00"/>
    </edge>
    <edge id=":SRC4_0" function="internal">
        <lane id=":SRC4_0_0" index="0" allow="passenger motorcycle" speed="8.33" length="0.10" shape="695.20,500.00 695.20,500.00"/>
        <lane id=":SRC4_0_1" index="1" allow="passenger motorcycle" speed="8.33" length="0.10" shape="698.40,500.00 698.40,500.00"/>
    </edge>
    <edge id=":SRC4_2" function="internal">
        <lane id=":SRC4_2_0" index="0" allow="passenger motorcycle" speed="8.33" length="0.10" shape="704.80,500.00 704.80,500.00"/>
        <lane id=":SRC4_2_1" index="1" allow="passenger motorcycle" speed="8.33" length="0.10" shape="701.60,500.00 701.60,500.00"/>
    </edge>

    <edge id="N01_NT_N_W" from="N01" to="NT_N_W" priority="10" type="outskirts">
        <lane id="N01_NT_N_W_0" index="0" allow="passenger bus motorcycle" speed="19.44" length="289.60" shape="304.80,710.40 304.80,1000.00"/>
        <lane id="N01_NT_N_W_1" index="1" allow="passenger bus motorcycle" speed="19.44" length="289.60" shape="301.60,710.40 301.60,1000.00"/>
    </edge>
    <edge id="N01_NT_W_N" from="N01" to="NT_W_N" priority="10" type="outskirts">
        <lane id="N01_NT_W_N_0" index="0" allow="passenger bus motorcycle" speed="19.44" length="289.60" shape="289.60,704.80 0.00,704.80"/>
        <lane id="N01_NT_W_N_1" index="1" allow="passenger bus motorcycle" speed="19.44" length="289.60" shape="289.60,701.60 0.00,701.60"/>
    </edge>
    <edge id="N01_SRC1" from="N01" to="SRC1" priority="12" type="main_road">
        <lane id="N01_SRC1_0" index="0" allow="passenger bus motorcycle" speed="13.89" length="189.60" shape="310.40,695.20 500.00,695.20"/>
        <lane id="N01_SRC1_1" index="1" allow="passenger bus motorcycle" speed="13.89" length="189.60" shape="310.40,698.40 500.00,698.40"/>
    </edge>
    <edge id="N01_SRC3" from="N01" to="SRC3" priority="8" type="alley">
        <lane id="N01_SRC3_0" index="0" allow="passenger motorcycle" speed="8.33" length="189.60" shape="295.20,689.60 295.20,500.00"/>
        <lane id="N01_SRC3_1" index="1" allow="passenger motorcycle" speed="8.33" length="189.60" shape="298.40,689.60 298.40,500.00"/>
    </edge>
    <edge id="N02_NT_E_N" from="N02" to="NT_E_N" priority="10" type="outskirts">
        <lane id="N02_NT_E_N_0" index="0" allow="passenger bus motorcycle" speed="19.44" length="289.60" shape="710.40,695.20 1000.00,695.20"/>
        <lane id="N02_NT_E_N_1" index="1" allow="passenger bus motorcycle" speed="19.44" length="289.60" shape="710.40,698.40 1000.00,698.40"/>
    </edge>
    <edge id="N02_NT_N_E" from="N02" to="NT_N_E" priority="10" type="outskirts">
        <lane id="N02_NT_N_E_0" index="0" allow="passenger bus motorcycle" speed="19.44" length="289.60" shape="704.80,710.40 704.80,1000.00"/>
        <lane id="N02_NT_N_E_1" index="1" allow="passenger bus motorcycle" speed="19.44" length="289.60" shape="701.60,710.40 701.60,1000.00"/>
    </edge>
    <edge id="N02_SRC1" from="N02" to="SRC1" priority="12" type="main_road">
        <lane id="N02_SRC1_0" index="0" allow="passenger bus motorcycle" speed="13.89" length="189.60" shape="689.60,704.80 500.00,704.80"/>
        <lane id="N02_SRC1_1" index="1" allow="passenger bus motorcycle" speed="13.89" length="189.60" shape="689.60,701.60 500.00,701.60"/>
    </edge>
    <edge id="N02_SRC4" from="N02" to="SRC4" priority="8" type="alley">
        <lane id="N02_SRC4_0" index="0" allow="passenger motorcycle" speed="8.33" length="189.60" shape="695.20,689.60 695.20,500.00"/>
        <lane id="N02_SRC4_1" index="1" allow="passenger motorcycle" speed="8.33" length="189.60" shape="698.40,689.60 698.40,500.00"/>
    </edge>
    <edge id="N03_NT_S_W" from="N03" to="NT_S_W" priority="10" type="outskirts">
        <lane id="N03_NT_S_W_0" index="0" allow="passenger bus motorcycle" speed="19.44" length="289.60" shape="295.20,289.60 295.20,0.00"/>
        <lane id="N03_NT_S_W_1" index="1" allow="passenger bus motorcycle" speed="19.44" length="289.60" shape="298.40,289.60 298.40,0.00"/>
    </edge>
    <edge id="N03_NT_W_S" from="N03" to="NT_W_S" priority="10" type="outskirts">
        <lane id="N03_NT_W_S_0" index="0" allow="passenger bus motorcycle" speed="19.44" length="289.60" shape="289.60,304.80 0.00,304.80"/>
        <lane id="N03_NT_W_S_1" index="1" allow="passenger bus motorcycle" speed="19.44" length="289.60" shape="289.60,301.60 0.00,301.60"/>
    </edge>
    <edge id="N03_SRC2" from="N03" to="SRC2" priority="12" type="main_road">
        <lane id="N03_SRC2_0" index="0" allow="passenger bus motorcycle" speed="13.89" length="189.60" shape="310.40,295.20 500.00,295.20"/>
        <lane id="N03_SRC2_1" index="1" allow="passenger bus motorcycle" speed="13.89" length="189.60" shape="310.40,298.40 500.00,298.40"/>
    </edge>
    <edge id="N03_SRC3" from="N03" to="SRC3" priority="8" type="alley">
        <lane id="N03_SRC3_0" index="0" allow="passenger motorcycle" speed="8.33" length="189.60" shape="304.80,310.40 304.80,500.00"/>
        <lane id="N03_SRC3_1" index="1" allow="passenger motorcycle" speed="8.33" length="189.60" shape="301.60,310.40 301.60,500.00"/>
    </edge>
    <edge id="N04_NT_E_S" from="N04" to="NT_E_S" priority="10" type="outskirts">
        <lane id="N04_NT_E_S_0" index="0" allow="passenger bus motorcycle" speed="19.44" length="289.60" shape="710.40,295.20 1000.00,295.20"/>
        <lane id="N04_NT_E_S_1" index="1" allow="passenger bus motorcycle" speed="19.44" length="289.60" shape="710.40,298.40 1000.00,298.40"/>
    </edge>
    <edge id="N04_NT_S_E" from="N04" to="NT_S_E" priority="10" type="outskirts">
        <lane id="N04_NT_S_E_0" index="0" allow="passenger bus motorcycle" speed="19.44" length="289.60" shape="695.20,289.60 695.20,0.00"/>
        <lane id="N04_NT_S_E_1" index="1" allow="passenger bus motorcycle" speed="19.44" length="289.60" shape="698.40,289.60 698.40,0.00"/>
    </edge>
    <edge id="N04_SRC2" from="N04" to="SRC2" priority="12" type="main_road">
        <lane id="N04_SRC2_0" index="0" allow="passenger bus motorcycle" speed="13.89" length="189.60" shape="689.60,304.80 500.00,304.80"/>
        <lane id="N04_SRC2_1" index="1" allow="passenger bus motorcycle" speed="13.89" length="189.60" shape="689.60,301.60 500.00,301.60"/>
    </edge>
    <edge id="N04_SRC4" from="N04" to="SRC4" priority="8" type="alley">
        <lane id="N04_SRC4_0" index="0" allow="passenger motorcycle" speed="8.33" length="189.60" shape="704.80,310.40 704.80,500.00"/>
        <lane id="N04_SRC4_1" index="1" allow="passenger motorcycle" speed="8.33" length="189.60" shape="701.60,310.40 701.60,500.00"/>
    </edge>
    <edge id="NT_E_N_N02" from="NT_E_N" to="N02" priority="10" type="outskirts">
        <lane id="NT_E_N_N02_0" index="0" allow="passenger bus motorcycle" speed="19.44" length="289.60" shape="1000.00,704.80 710.40,704.80"/>
        <lane id="NT_E_N_N02_1" index="1" allow="passenger bus motorcycle" speed="19.44" length="289.60" shape="1000.00,701.60 710.40,701.60"/>
    </edge>
    <edge id="NT_E_S_N04" from="NT_E_S" to="N04" priority="10" type="outskirts">
        <lane id="NT_E_S_N04_0" index="0" allow="passenger bus motorcycle" speed="19.44" length="289.60" shape="1000.00,304.80 710.40,304.80"/>
        <lane id="NT_E_S_N04_1" index="1" allow="passenger bus motorcycle" speed="19.44" length="289.60" shape="1000.00,301.60 710.40,301.60"/>
    </edge>
    <edge id="NT_N_E_N02" from="NT_N_E" to="N02" priority="10" type="outskirts">
        <lane id="NT_N_E_N02_0" index="0" allow="passenger bus motorcycle" speed="19.44" length="289.60" shape="695.20,1000.00 695.20,710.40"/>
        <lane id="NT_N_E_N02_1" index="1" allow="passenger bus motorcycle" speed="19.44" length="289.60" shape="698.40,1000.00 698.40,710.40"/>
    </edge>
    <edge id="NT_N_W_N01" from="NT_N_W" to="N01" priority="10" type="outskirts">
        <lane id="NT_N_W_N01_0" index="0" allow="passenger bus motorcycle" speed="19.44" length="289.60" shape="295.20,1000.00 295.20,710.40"/>
        <lane id="NT_N_W_N01_1" index="1" allow="passenger bus motorcycle" speed="19.44" length="289.60" shape="298.40,1000.00 298.40,710.40"/>
    </edge>
    <edge id="NT_S_E_N04" from="NT_S_E" to="N04" priority="10" type="outskirts">
        <lane id="NT_S_E_N04_0" index="0" allow="passenger bus motorcycle" speed="19.44" length="289.60" shape="704.80,0.00 704.80,289.60"/>
        <lane id="NT_S_E_N04_1" index="1" allow="passenger bus motorcycle" speed="19.44" length="289.60" shape="701.60,0.00 701.60,289.60"/>
    </edge>
    <edge id="NT_S_W_N03" from="NT_S_W" to="N03" priority="10" type="outskirts">
        <lane id="NT_S_W_N03_0" index="0" allow="passenger bus motorcycle" speed="19.44" length="289.60" shape="304.80,0.00 304.80,289.60"/>
        <lane id="NT_S_W_N03_1" index="1" allow="passenger bus motorcycle" speed="19.44" length="289.60" shape="301.60,0.00 301.60,289.60"/>
    </edge>
    <edge id="NT_W_N_N01" from="NT_W_N" to="N01" priority="10" type="outskirts">
        <lane id="NT_W_N_N01_0" index="0" allow="passenger bus motorcycle" speed="19.44" length="289.60" shape="0.00,695.20 289.60,695.20"/>
        <lane id="NT_W_N_N01_1" index="1" allow="passenger bus motorcycle" speed="19.44" length="289.60" shape="0.00,698.40 289.60,698.40"/>
    </edge>
    <edge id="NT_W_S_N03" from="NT_W_S" to="N03" priority="10" type="outskirts">
        <lane id="NT_W_S_N03_0" index="0" allow="passenger bus motorcycle" speed="19.44" length="289.60" shape="0.00,295.20 289.60,295.20"/>
        <lane id="NT_W_S_N03_1" index="1" allow="passenger bus motorcycle" speed="19.44" length="289.60" shape="0.00,298.40 289.60,298.40"/>
    </edge>
    <edge id="SRC1_N01" from="SRC1" to="N01" priority="12" type="main_road">
        <lane id="SRC1_N01_0" index="0" allow="passenger bus motorcycle" speed="13.89" length="189.60" shape="500.00,704.80 310.40,704.80"/>
        <lane id="SRC1_N01_1" index="1" allow="passenger bus motorcycle" speed="13.89" length="189.60" shape="500.00,701.60 310.40,701.60"/>
    </edge>
    <edge id="SRC1_N02" from="SRC1" to="N02" priority="12" type="main_road">
        <lane id="SRC1_N02_0" index="0" allow="passenger bus motorcycle" speed="13.89" length="189.60" shape="500.00,695.20 689.60,695.20"/>
        <lane id="SRC1_N02_1" index="1" allow="passenger bus motorcycle" speed="13.89" length="189.60" shape="500.00,698.40 689.60,698.40"/>
    </edge>
    <edge id="SRC2_N03" from="SRC2" to="N03" priority="12" type="main_road">
        <lane id="SRC2_N03_0" index="0" allow="passenger bus motorcycle" speed="13.89" length="189.60" shape="500.00,304.80 310.40,304.80"/>
        <lane id="SRC2_N03_1" index="1" allow="passenger bus motorcycle" speed="13.89" length="189.60" shape="500.00,301.60 310.40,301.60"/>
    </edge>
    <edge id="SRC2_N04" from="SRC2" to="N04" priority="12" type="main_road">