<?xml version="1.0" encoding="UTF-8"?>

<!-- generated on 2026-06-15T03:22:03.971902+07:00 by Eclipse SUMO netconvert 1.27.0
<netconvertConfiguration xmlns:xsi="http://www.w3.org/2001/XMLSchema-instance" xsi:noNamespaceSchemaLocation="http://sumo.dlr.de/xsd/netconvertConfiguration.xsd">

    <input>
        <node-files value="net/uet.nod.xml"/>
        <edge-files value="net/uet.edg.xml"/>
        <type-files value="net/uet.typ.xml"/>
    </input>

    <output>
        <output-file value="net/uet.net.xml"/>
    </output>

    <tls_building>
        <tls.cycle.time value="90"/>
        <tls.default-type value="actuated"/>
    </tls_building>

    <junctions>
        <no-turnarounds value="true"/>
        <junctions.corner-detail value="5"/>
    </junctions>

</netconvertConfiguration>
-->

<net version="1.20" junctionCornerDetail="5" limitTurnSpeed="5.50" xmlns:xsi="http://www.w3.org/2001/XMLSchema-instance" xsi:noNamespaceSchemaLocation="http://sumo.dlr.de/xsd/net_file.xsd">

    <location netOffset="1641.00,920.00" convBoundary="0.00,0.00,3538.00,1843.00" origBoundary="-1641.00,-920.00,1897.00,923.00" projParameter="!"/>

    <type id="arterial" priority="14" numLanes="3" speed="16.67" allow="passenger bus motorcycle"/>
    <type id="outskirts" priority="10" numLanes="2" speed="19.44" allow="passenger bus motorcycle"/>
    <type id="secondary" priority="12" numLanes="2" speed="13.89" allow="passenger bus motorcycle"/>

    <edge id=":N01_0" function="internal">
        <lane id=":N01_0_0" index="0" allow="passenger bus motorcycle" speed="18.05" length="29.85" shape="310.41,1741.40 301.31,1744.21 294.22,1745.63 288.00,1746.74 281.49,1748.59"/>
        <lane id=":N01_0_1" index="1" allow="passenger bus motorcycle" speed="18.05" length="29.85" shape="309.31,1738.40 300.21,1741.20 293.13,1742.63 286.90,1743.73 280.39,1745.58"/>
    </edge>
    <edge id=":N01_2" function="internal">
        <lane id=":N01_2_0" index="0" allow="passenger bus motorcycle" speed="10.50" length="5.37" shape="308.21,1735.39 302.97,1736.56"/>
        <lane id=":N01_2_1" index="1" allow="passenger bus motorcycle" speed="9.96" length="4.62" shape="308.21,1735.39 303.68,1736.30"/>
    </edge>
    <edge id=":N01_11" function="internal">
        <lane id=":N01_11_0" index="0" allow="passenger bus motorcycle" speed="10.50" length="26.58" shape="302.97,1736.56 299.13,1737.41 292.19,1736.00 287.76,1731.01 286.20,1722.26"/>
        <lane id=":N01_11_1" index="0" allow="passenger bus motorcycle" speed="9.96" length="23.98" shape="303.68,1736.30 300.22,1736.98 294.32,1735.25 290.66,1730.30 289.40,1722.26"/>
    </edge>
    <edge id=":N01_4" function="internal">
        <lane id=":N01_4_0" index="0" allow="passenger bus motorcycle" speed="5.88" length="9.11" shape="299.00,1722.26 299.37,1724.87 300.48,1726.43 302.32,1726.93 304.91,1726.38"/>
    </edge>
    <edge id=":N01_5" function="internal">
        <lane id=":N01_5_0" index="0" allow="passenger bus motorcycle" speed="13.71" length="32.02" shape="295.80,1722.26 294.91,1731.81 292.22,1739.39 287.75,1744.98 281.49,1748.59"/>
        <lane id=":N01_5_1" index="1" allow="passenger bus motorcycle" speed="12.87" length="28.10" shape="292.60,1722.26 291.84,1730.79 289.55,1737.52 285.73,1742.45 280.39,1745.58"/>
    </edge>
    <edge id=":N01_7" function="internal">
        <lane id=":N01_7_0" index="0" allow="passenger bus motorcycle" speed="10.57" length="18.70" shape="278.19,1739.57 280.30,1737.83 281.80,1734.36 282.70,1729.17 283.00,1722.26"/>
    </edge>
    <edge id=":N01_8" function="internal">
        <lane id=":N01_8_0" index="0" allow="passenger bus motorcycle" speed="18.05" length="29.76" shape="278.19,1739.57 284.36,1736.78 289.83,1733.61 296.15,1730.12 304.91,1726.38"/>
        <lane id=":N01_8_1" index="1" allow="passenger bus motorcycle" speed="18.05" length="29.76" shape="279.29,1742.57 285.46,1739.79 290.93,1736.62 297.25,1733.13 306.01,1729.38"/>
        <lane id=":N01_8_2" index="2" allow="passenger bus motorcycle" speed="18.05" length="29.76" shape="279.29,1742.57 307.11,1732.39"/>
    </edge>
    <edge id=":N02_0" function="internal">
        <lane id=":N02_0_0" index="0" allow="passenger bus motorcycle" speed="16.67" length="27.97" shape="910.03,1522.00 883.70,1531.20"/>
        <lane id=":N02_0_1" index="1" allow="passenger bus motorcycle" speed="16.67" length="27.97" shape="909.01,1518.97 882.60,1528.19"/>
        <lane id=":N02_0_2" index="2" allow="passenger bus motorcycle" speed="16.67" length="27.97" shape="907.98,1515.94 881.50,1525.19"/>
    </edge>
    <edge id=":N02_3" function="internal">
        <lane id=":N02_3_0" index="0" allow="passenger bus motorcycle" speed="10.54" length="5.20" shape="907.98,1515.94 902.89,1516.97"/>
        <lane id=":N02_3_1" index="1" allow="passenger bus motorcycle" speed="10.04" length="4.74" shape="907.98,1515.94 903.32,1516.82"/>
    </edge>
    <edge id=":N02_12" function="internal">
        <lane id=":N02_12_0" index="0" allow="passenger bus motorcycle" speed="10.54" length="26.51" shape="902.89,1516.97 898.91,1517.77 892.05,1516.30 887.71,1511.32 886.20,1502.62"/>
        <lane id=":N02_12_1" index="0" allow="passenger bus motorcycle" speed="10.04" length="23.91" shape="903.32,1516.82 899.85,1517.47 894.04,1515.75 890.56,1510.80 889.40,1502.62"/>
    </edge>
    <edge id=":N02_5" function="internal">
        <lane id=":N02_5_0" index="0" allow="passenger bus motorcycle" speed="5.92" length="9.10" shape="899.00,1502.62 899.37,1505.22 900.48,1506.79 902.32,1507.33 904.90,1506.85"/>
    </edge>
    <edge id=":N02_6" function="internal">
        <lane id=":N02_6_0" index="0" allow="passenger bus motorcycle" speed="13.44" length="30.70" shape="895.80,1502.62 894.98,1511.99 892.50,1519.38 888.38,1524.78 882.60,1528.19"/>
        <lane id=":N02_6_1" index="1" allow="passenger bus motorcycle" speed="12.58" length="26.80" shape="892.60,1502.62 891.91,1510.96 889.83,1517.51 886.36,1522.25 881.50,1525.19"/>
    </edge>
    <edge id=":N02_8" function="internal">
        <lane id=":N02_8_0" index="0" allow="passenger bus motorcycle" speed="9.55" length="15.13" shape="878.20,1516.17 880.30,1514.67 881.80,1511.90 882.70,1507.89 883.00,1502.62"/>
    </edge>
    <edge id=":N02_9" function="internal">
        <lane id=":N02_9_0" index="0" allow="passenger bus motorcycle" speed="16.67" length="28.21" shape="878.20,1516.17 904.90,1506.85"/>
        <lane id=":N02_9_1" index="1" allow="passenger bus motorcycle" speed="16.67" length="28.21" shape="879.30,1519.18 905.93,1509.88"/>
        <lane id=":N02_9_2" index="2" allow="passenger bus motorcycle" speed="16.67" length="28.21" shape="880.40,1522.18 906.95,1512.91"/>
    </edge>
    <edge id=":N03_0" function="internal">
        <lane id=":N03_0_0" index="0" allow="passenger bus motorcycle" speed="5.92" length="9.10" shape="1536.20,1316.30 1535.83,1313.70 1534.72,1312.13 1532.88,1311.58 1530.30,1312.07"/>
    </edge>
    <edge id=":N03_1" function="internal">
        <lane id=":N03_1_0" index="0" allow="passenger bus motorcycle" speed="16.66" length="31.15" shape="1536.20,1316.30 1536.20,1285.15"/>
        <lane id=":N03_1_1" index="1" allow="passenger bus motorcycle" speed="16.66" length="31.15" shape="1539.40,1316.30 1539.40,1285.15"/>
    </edge>
    <edge id=":N03_3" function="internal">
        <lane id=":N03_3_0" index="0" allow="passenger bus motorcycle" speed="11.47" length="6.71" shape="1539.40,1316.30 1540.10,1309.63"/>
    </edge>
    <edge id=":N03_18" function="internal">
        <lane id=":N03_18_0" index="0" allow="passenger bus motorcycle" speed="11.47" length="19.62" shape="1540.10,1309.63 1540.23,1308.44 1542.73,1302.49 1546.88,1298.47 1552.70,1296.36"/>
    </edge>
    <edge id=":N03_4" function="internal">
        <lane id=":N03_4_0" index="0" allow="passenger bus motorcycle" speed="8.74" length="14.90" shape="1554.33,1305.82 1550.60,1307.03 1547.93,1309.18 1546.33,1312.27 1545.80,1316.30"/>
    </edge>
    <edge id=":N03_5" function="internal">
        <lane id=":N03_5_0" index="0" allow="passenger bus motorcycle" speed="16.67" length="25.38" shape="1554.33,1305.82 1547.07,1307.13 1542.14,1308.24 1537.29,1309.71 1530.30,1312.07"/>
        <lane id=":N03_5_1" index="1" allow="passenger bus motorcycle" speed="16.67" length="25.38" shape="1553.79,1302.67 1546.38,1304.00 1541.35,1305.14 1536.41,1306.63 1529.27,1309.04"/>
        <lane id=":N03_5_2" index="2" allow="passenger bus motorcycle" speed="16.67" length="25.38" shape="1553.24,1299.51 1545.69,1300.87 1540.56,1302.03 1535.52,1303.55 1528.25,1306.01"/>
    </edge>
    <edge id=":N03_8" function="internal">
        <lane id=":N03_8_0" index="0" allow="passenger bus motorcycle" speed="9.61" length="4.03" shape="1553.24,1299.51 1549.22,1299.51"/>
    </edge>
    <edge id=":N03_19" function="internal">
        <lane id=":N03_19_0" index="0" allow="passenger bus motorcycle" speed="9.61" length="19.64" shape="1549.22,1299.51 1547.19,1299.51 1542.86,1297.12 1540.27,1292.33 1539.40,1285.15"/>
    </edge>
    <edge id=":N03_9" function="internal">
        <lane id=":N03_9_0" index="0" allow="passenger bus motorcycle" speed="6.17" length="9.05" shape="1545.80,1285.15 1546.16,1287.67 1547.25,1289.33 1549.07,1290.12 1551.61,1290.05"/>
    </edge>
    <edge id=":N03_10" function="internal">
        <lane id=":N03_10_0" index="0" allow="passenger bus motorcycle" speed="16.66" length="31.15" shape="1545.80,1285.15 1545.80,1316.30"/>
        <lane id=":N03_10_1" index="1" allow="passenger bus motorcycle" speed="16.66" length="31.15" shape="1542.60,1285.15 1542.60,1316.30"/>
    </edge>
    <edge id=":N03_12" function="internal">
        <lane id=":N03_12_0" index="0" allow="passenger bus motorcycle" speed="12.52" length="5.79" shape="1542.60,1285.15 1541.89,1290.91"/>
    </edge>
    <edge id=":N03_20" function="internal">
        <lane id=":N03_20_0" index="0" allow="passenger bus motorcycle" speed="12.52" length="21.43" shape="1541.89,1290.91 1541.70,1292.46 1539.01,1298.36 1534.53,1302.88 1528.25,1306.01"/>
    </edge>
    <edge id=":N03_13" function="internal">
        <lane id=":N03_13_0" index="0" allow="passenger bus motorcycle" speed="10.05" length="17.26" shape="1525.17,1296.91 1529.99,1294.78 1533.44,1292.11 1535.51,1288.90 1536.20,1285.15"/>
    </edge>
    <edge id=":N03_14" function="internal">
        <lane id=":N03_14_0" index="0" allow="passenger bus motorcycle" speed="16.67" length="26.87" shape="1525.17,1296.91 1532.87,1294.32 1538.20,1292.71 1543.62,1291.49 1551.61,1290.05"/>
        <lane id=":N03_14_1" index="1" allow="passenger bus motorcycle" speed="16.67" length="26.87" shape="1526.19,1299.94 1533.75,1297.40 1538.98,1295.82 1544.31,1294.62 1552.16,1293.21"/>
        <lane id=":N03_14_2" index="2" allow="passenger bus motorcycle" speed="16.67" length="26.87" shape="1527.22,1302.97 1534.64,1300.48 1539.77,1298.92 1545.00,1297.74 1552.70,1296.36"/>
    </edge>
    <edge id=":N03_17" function="internal">
        <lane id=":N03_17_0" index="0" allow="passenger bus motorcycle" speed="9.48" length="4.46" shape="1527.22,1302.97 1531.62,1302.24"/>
    </edge>
    <edge id=":N03_21" function="internal">
        <lane id=":N03_21_0" index="0" allow="passenger bus motorcycle" speed="9.48" length="20.97" shape="1531.62,1302.24 1533.95,1301.86 1538.76,1303.70 1541.64,1308.52 1542.60,1316.30"/>
    </edge>
    <edge id=":N04_0" function="internal">
        <lane id=":N04_0_0" index="0" allow="passenger bus motorcycle" speed="6.17" length="9.05" shape="2116.20,1214.85 2115.84,1212.33 2114.75,1210.67 2112.93,1209.88 2110.39,1209.95"/>
    </edge>
    <edge id=":N04_1" function="internal">
        <lane id=":N04_1_0" index="0" allow="passenger bus motorcycle" speed="16.66" length="30.34" shape="2116.20,1214.85 2116.20,1184.50"/>
        <lane id=":N04_1_1" index="1" allow="passenger bus motorcycle" speed="16.66" length="30.34" shape="2119.40,1214.85 2119.40,1184.50"/>
    </edge>
    <edge id=":N04_3" function="internal">
        <lane id=":N04_3_0" index="0" allow="passenger bus motorcycle" speed="11.79" length="5.98" shape="2119.40,1214.85 2120.11,1208.91"/>
    </edge>
    <edge id=":N04_18" function="internal">
        <lane id=":N04_18_0" index="0" allow="passenger bus motorcycle" speed="11.79" length="20.08" shape="2120.11,1208.91 2120.26,1207.59 2122.86,1201.91 2127.17,1197.81 2133.22,1195.30"/>
    </edge>
    <edge id=":N04_4" function="internal">
        <lane id=":N04_4_0" index="0" allow="passenger bus motorcycle" speed="9.15" length="15.35" shape="2135.55,1204.61 2131.28,1206.16 2128.24,1208.39 2126.41,1211.28 2125.80,1214.85"/>
    </edge>
    <edge id=":N04_5" function="internal">
        <lane id=":N04_5_0" index="0" allow="passenger bus motorcycle" speed="16.67" length="25.49" shape="2135.55,1204.61 2110.39,1209.95"/>
        <lane id=":N04_5_1" index="1" allow="passenger bus motorcycle" speed="16.67" length="25.49" shape="2134.77,1201.50 2109.84,1206.79"/>
        <lane id=":N04_5_2" index="2" allow="passenger bus motorcycle" speed="16.67" length="25.49" shape="2134.00,1198.40 2109.30,1203.64"/>
    </edge>
    <edge id=":N04_8" function="internal">
        <lane id=":N04_8_0" index="0" allow="passenger bus motorcycle" speed="9.54" length="5.40" shape="2134.00,1198.40 2128.61,1198.82"/>
    </edge>
    <edge id=":N04_19" function="internal">
        <lane id=":N04_19_0" index="0" allow="passenger bus motorcycle" speed="9.54" length="19.07" shape="2128.61,1198.82 2127.61,1198.90 2123.05,1196.75 2120.31,1191.95 2119.40,1184.50"/>
    </edge>
    <edge id=":N04_9" function="internal">
        <lane id=":N04_9_0" index="0" allow="passenger bus motorcycle" speed="6.04" length="9.07" shape="2125.80,1184.50 2126.17,1187.06 2127.27,1188.67 2129.10,1189.35 2131.67,1189.09"/>
    </edge>
    <edge id=":N04_10" function="internal">
        <lane id=":N04_10_0" index="0" allow="passenger bus motorcycle" speed="16.66" length="30.34" shape="2125.80,1184.50 2125.80,1214.85"/>
        <lane id=":N04_10_1" index="1" allow="passenger bus motorcycle" speed="16.66" length="30.34" shape="2122.60,1184.50 2122.60,1214.85"/>
    </edge>
    <edge id=":N04_12" function="internal">
        <lane id=":N04_12_0" index="0" allow="passenger bus motorcycle" speed="11.32" length="6.41" shape="2122.60,1184.50 2121.89,1190.88"/>
    </edge>
    <edge id=":N04_20" function="internal">
        <lane id=":N04_20_0" index="0" allow="passenger bus motorcycle" speed="11.32" length="19.21" shape="2121.89,1190.88 2121.77,1192.02 2119.27,1197.71 2115.12,1201.59 2109.30,1203.64"/>
    </edge>
    <edge id=":N04_13" function="internal">
        <lane id=":N04_13_0" index="0" allow="passenger bus motorcycle" speed="8.55" length="14.22" shape="2107.67,1194.18 2111.40,1193.02 2114.07,1191.03 2115.67,1188.19 2116.20,1184.50"/>
    </edge>
    <edge id=":N04_14" function="internal">
        <lane id=":N04_14_0" index="0" allow="passenger bus motorcycle" speed="16.67" length="24.77" shape="2107.67,1194.18 2131.67,1189.09"/>
        <lane id=":N04_14_1" index="1" allow="passenger bus motorcycle" speed="16.67" length="24.77" shape="2108.21,1197.33 2132.44,1192.19"/>
        <lane id=":N04_14_2" index="2" allow="passenger bus motorcycle" speed="16.67" length="24.77" shape="2108.76,1200.49 2133.22,1195.30"/>
    </edge>
    <edge id=":N04_17" function="internal">
        <lane id=":N04_17_0" index="0" allow="passenger bus motorcycle" speed="9.61" length="3.45" shape="2108.76,1200.49 2112.20,1200.49"/>
    </edge>
    <edge id=":N04_21" function="internal">
        <lane id=":N04_21_0" index="0" allow="passenger bus motorcycle" speed="9.61" length="20.22" shape="2112.20,1200.49 2114.81,1200.49 2119.14,1202.88 2121.73,1207.67 2122.60,1214.85"/>
    </edge>
    <edge id=":N05_0" function="internal">
        <lane id=":N05_0_0" index="0" allow="passenger bus motorcycle" speed="6.04" length="9.07" shape="2636.20,1085.50 2635.83,1082.94 2634.73,1081.33 2632.90,1080.65 2630.33,1080.91"/>
    </edge>
    <edge id=":N05_1" function="internal">
        <lane id=":N05_1_0" index="0" allow="passenger bus motorcycle" speed="16.66" length="30.16" shape="2636.20,1085.50 2636.20,1055.33"/>
        <lane id=":N05_1_1" index="1" allow="passenger bus motorcycle" speed="16.66" length="30.16" shape="2639.40,1085.50 2639.40,1055.33"/>
    </edge>
    <edge id=":N05_3" function="internal">
        <lane id=":N05_3_0" index="0" allow="passenger bus motorcycle" speed="11.16" length="6.48" shape="2639.40,1085.50 2640.11,1079.05"/>
    </edge>
    <edge id=":N05_18" function="internal">
        <lane id=":N05_18_0" index="0" allow="passenger bus motorcycle" speed="11.16" length="18.87" shape="2640.11,1079.05 2640.22,1077.99 2642.69,1072.35 2646.79,1068.57 2652.54,1066.65"/>
    </edge>
    <edge id=":N05_4" function="internal">
        <lane id=":N05_4_0" index="0" allow="passenger bus motorcycle" speed="8.34" length="13.74" shape="2653.97,1076.14 2650.39,1077.19 2647.84,1079.09 2646.31,1081.86 2645.80,1085.50"/>
    </edge>
    <edge id=":N05_5" function="internal">
        <lane id=":N05_5_0" index="0" allow="passenger bus motorcycle" speed="16.67" length="24.44" shape="2653.97,1076.14 2646.89,1077.23 2642.06,1078.10 2637.28,1079.19 2630.33,1080.91"/>
        <lane id=":N05_5_1" index="1" allow="passenger bus motorcycle" speed="16.67" length="24.44" shape="2653.49,1072.98 2646.32,1074.08 2641.44,1074.96 2636.59,1076.06 2629.56,1077.81"/>
        <lane id=":N05_5_2" index="2" allow="passenger bus motorcycle" speed="16.67" length="24.44" shape="2653.02,1069.82 2645.76,1070.93 2640.81,1071.82 2635.91,1072.93 2628.78,1074.70"/>
    </edge>
    <edge id=":N05_8" function="internal">
        <lane id=":N05_8_0" index="0" allow="passenger bus motorcycle" speed="9.64" length="4.08" shape="2653.02,1069.82 2648.94,1069.72"/>
    </edge>
    <edge id=":N05_19" function="internal">
        <lane id=":N05_19_0" index="0" allow="passenger bus motorcycle" speed="9.64" length="19.37" shape="2648.94,1069.72 2647.06,1069.68 2642.80,1067.22 2640.25,1062.43 2639.40,1055.33"/>
    </edge>
    <edge id=":N05_9" function="internal">
        <lane id=":N05_9_0" index="0" allow="passenger bus motorcycle" speed="6.21" length="9.05" shape="2645.80,1055.33 2646.16,1057.84 2647.25,1059.51 2649.06,1060.34 2651.59,1060.32"/>
    </edge>
    <edge id=":N05_10" function="internal">
        <lane id=":N05_10_0" index="0" allow="passenger bus motorcycle" speed="16.66" length="30.16" shape="2645.80,1055.33 2645.80,1085.50"/>
        <lane id=":N05_10_1" index="1" allow="passenger bus motorcycle" speed="16.66" length="30.16" shape="2642.60,1055.33 2642.60,1085.50"/>
    </edge>
    <edge id=":N05_12" function="internal">
        <lane id=":N05_12_0" index="0" allow="passenger bus motorcycle" speed="11.76" length="5.91" shape="2642.60,1055.33 2641.89,1061.20"/>
    </edge>
    <edge id=":N05_20" function="internal">
        <lane id=":N05_20_0" index="0" allow="passenger bus motorcycle" speed="11.76" length="19.98" shape="2641.89,1061.20 2641.74,1062.51 2639.14,1068.13 2634.83,1072.20 2628.78,1074.70"/>
    </edge>
    <edge id=":N05_13" function="internal">
        <lane id=":N05_13_0" index="0" allow="passenger bus motorcycle" speed="9.11" length="15.20" shape="2626.45,1065.39 2630.72,1063.85 2633.76,1061.66 2635.59,1058.82 2636.20,1055.33"/>
    </edge>
    <edge id=":N05_14" function="internal">
        <lane id=":N05_14_0" index="0" allow="passenger bus motorcycle" speed="16.67" length="25.36" shape="2626.45,1065.39 2633.84,1063.55 2638.93,1062.40 2644.06,1061.48 2651.59,1060.32"/>
        <lane id=":N05_14_1" index="1" allow="passenger bus motorcycle" speed="16.67" length="25.36" shape="2627.23,1068.50 2634.53,1066.68 2639.56,1065.54 2644.63,1064.63 2652.07,1063.49"/>
        <lane id=":N05_14_2" index="2" allow="passenger bus motorcycle" speed="16.67" length="25.36" shape="2628.00,1071.60 2635.22,1069.81 2640.18,1068.68 2645.19,1067.78 2652.54,1066.65"/>
    </edge>
    <edge id=":N05_17" function="internal">
        <lane id=":N05_17_0" index="0" allow="passenger bus motorcycle" speed="9.54" length="4.33" shape="2628.00,1071.60 2632.32,1071.26"/>
    </edge>
    <edge id=":N05_21" function="internal">
        <lane id=":N05_21_0" index="0" allow="passenger bus motorcycle" speed="9.54" length="20.15" shape="2632.32,1071.26 2634.39,1071.10 2638.95,1073.25 2641.69,1078.05 2642.60,1085.50"/>
    </edge>
    <edge id=":N06_0" function="internal">
        <lane id=":N06_0_0" index="0" allow="passenger bus motorcycle" speed="6.29" length="9.33" shape="3236.20,994.67 3235.82,992.16 3234.66,990.50 3232.74,989.69 3230.06,989.73"/>
    </edge>
    <edge id=":N06_1" function="internal">
        <lane id=":N06_1_0" index="0" allow="passenger bus motorcycle" speed="18.05" length="27.09" shape="3236.20,994.67 3235.70,988.15 3234.60,982.54 3233.50,976.26 3233.00,967.73"/>
        <lane id=":N06_1_1" index="1" allow="passenger bus motorcycle" speed="18.05" length="27.09" shape="3239.40,994.67 3238.90,988.15 3237.80,982.54 3236.70,976.26 3236.20,967.73"/>
        <lane id=":N06_1_2" index="2" allow="passenger bus motorcycle" speed="18.05" length="27.09" shape="3239.40,994.67 3239.40,967.73"/>
    </edge>
    <edge id=":N06_4" function="internal">
        <lane id=":N06_4_0" index="0" allow="passenger bus motorcycle" speed="11.50" length="7.99" shape="3239.40,994.67 3240.39,987.50 3240.75,986.84"/>
    </edge>
    <edge id=":N06_18" function="internal">
        <lane id=":N06_18_0" index="0" allow="passenger bus motorcycle" speed="11.50" length="18.94" shape="3240.75,986.84 3243.37,982.03 3248.33,978.27 3255.27,976.22"/>
    </edge>
    <edge id=":N06_5" function="internal">
        <lane id=":N06_5_0" index="0" allow="passenger bus motorcycle" speed="9.40" length="17.69" shape="3256.23,982.55 3251.67,983.90 3248.41,986.37 3246.45,989.96 3245.80,994.67"/>
    </edge>
    <edge id=":N06_6" function="internal">
        <lane id=":N06_6_0" index="0" allow="passenger bus motorcycle" speed="18.05" length="27.11" shape="3256.23,982.55 3249.86,984.02 3244.47,985.95 3238.42,987.97 3230.06,989.73"/>
        <lane id=":N06_6_1" index="1" allow="passenger bus motorcycle" speed="18.05" length="27.11" shape="3255.75,979.38 3249.38,980.85 3243.99,982.78 3237.94,984.81 3229.58,986.57"/>
        <lane id=":N06_6_2" index="2" allow="passenger bus motorcycle" speed="18.05" length="27.11" shape="3255.75,979.38 3229.11,983.40"/>
    </edge>
    <edge id=":N06_9" function="internal">
        <lane id=":N06_9_0" index="0" allow="passenger bus motorcycle" speed="9.68" length="8.23" shape="3255.75,979.38 3248.60,979.58 3247.60,979.22"/>
    </edge>
    <edge id=":N06_19" function="internal">
        <lane id=":N06_19_0" index="0" allow="passenger bus motorcycle" speed="9.68" length="15.49" shape="3247.60,979.22 3243.49,977.71 3240.42,973.76 3239.40,967.73"/>
    </edge>
    <edge id=":N06_10" function="internal">
        <lane id=":N06_10_0" index="0" allow="passenger bus motorcycle" speed="6.29" length="9.31" shape="3249.00,967.73 3249.36,970.39 3250.45,972.16 3252.26,973.05 3254.79,973.06"/>
    </edge>
    <edge id=":N06_11" function="internal">
        <lane id=":N06_11_0" index="0" allow="passenger bus motorcycle" speed="18.05" length="27.17" shape="3249.00,967.73 3248.50,976.26 3247.40,982.54 3246.30,988.15 3245.80,994.67"/>
        <lane id=":N06_11_1" index="1" allow="passenger bus motorcycle" speed="18.05" length="27.17" shape="3245.80,967.73 3245.30,976.26 3244.20,982.54 3243.10,988.15 3242.60,994.67"/>
    </edge>
    <edge id=":N06_13" function="internal">
        <lane id=":N06_13_0" index="0" allow="passenger bus motorcycle" speed="10.63" length="5.17" shape="3242.60,967.73 3241.89,972.85"/>
    </edge>
    <edge id=":N06_20" function="internal">
        <lane id=":N06_20_0" index="0" allow="passenger bus motorcycle" speed="10.63" length="17.72" shape="3241.89,972.85 3241.76,973.83 3239.23,978.47 3235.01,981.66 3229.11,983.40"/>
    </edge>
    <edge id=":N06_14" function="internal">
        <lane id=":N06_14_0" index="0" allow="passenger bus motorcycle" speed="6.87" length="9.02" shape="3227.68,973.91 3230.01,973.22 3231.67,971.97 3232.67,970.14 3233.00,967.73"/>
    </edge>
    <edge id=":N06_15" function="internal">
        <lane id=":N06_15_0" index="0" allow="passenger bus motorcycle" speed="18.05" length="27.18" shape="3227.68,973.91 3236.19,973.14 3242.56,973.29 3248.27,973.54 3254.79,973.06"/>
        <lane id=":N06_15_1" index="1" allow="passenger bus motorcycle" speed="18.05" length="27.18" shape="3228.16,977.07 3236.66,976.30 3243.04,976.45 3248.75,976.70 3255.27,976.22"/>
    </edge>
    <edge id=":N06_17" function="internal">
        <lane id=":N06_17_0" index="0" allow="passenger bus motorcycle" speed="9.69" length="4.25" shape="3228.63,980.24 3232.88,980.32"/>
    </edge>
    <edge id=":N06_21" function="internal">
        <lane id=":N06_21_0" index="0" allow="passenger bus motorcycle" speed="9.69" length="19.47" shape="3232.88,980.32 3234.74,980.35 3239.11,982.80 3241.73,987.57 3242.60,994.67"/>
    </edge>
    <edge id=":N07_0" function="internal">
        <lane id=":N07_0_0" index="0" allow="passenger bus motorcycle" speed="13.89" length="20.99" shape="1536.20,949.39 1536.20,928.40"/>
        <lane id=":N07_0_1" index="1" allow="passenger bus motorcycle" speed="13.89" length="20.99" shape="1539.40,949.39 1539.40,928.40"/>
    </edge>
    <edge id=":N07_2" function="internal">
        <lane id=":N07_2_0" index="0" allow="passenger bus motorcycle" speed="10.05" length="4.38" shape="1539.40,949.39 1540.11,945.07"/>
    </edge>
    <edge id=":N07_9" function="internal">
        <lane id=":N07_9_0" index="0" allow="passenger bus motorcycle" speed="10.05" length="15.62" shape="1540.11,945.07 1540.20,944.56 1542.59,940.79 1546.58,938.09 1552.16,936.45"/>
    </edge>
    <edge id=":N07_3" function="internal">
        <lane id=":N07_3_0" index="0" allow="passenger bus motorcycle" speed="7.56" length="10.93" shape="1553.24,942.76 1549.99,943.66 1547.66,945.06 1546.27,946.97 1545.80,949.39"/>
        <lane id=":N07_3_1" index="1" allow="passenger bus motorcycle" speed="8.89" length="15.46" shape="1552.70,939.61 1548.28,940.87 1545.13,942.92 1543.23,945.76 1542.60,949.39"/>
    </edge>
    <edge id=":N07_5" function="internal">
        <lane id=":N07_5_0" index="0" allow="passenger bus motorcycle" speed="9.02" length="20.71" shape="1552.70,939.61 1546.88,939.77 1542.73,937.95 1540.23,934.16 1539.40,928.40"/>
    </edge>
    <edge id=":N07_6" function="internal">
        <lane id=":N07_6_0" index="0" allow="passenger bus motorcycle" speed="6.17" length="9.05" shape="1545.80,928.40 1546.16,930.92 1547.25,932.58 1549.07,933.37 1551.61,933.30"/>
    </edge>
    <edge id=":N07_7" function="internal">
        <lane id=":N07_7_0" index="0" allow="passenger bus motorcycle" speed="13.89" length="20.99" shape="1545.80,928.40 1545.80,949.39"/>
        <lane id=":N07_7_1" index="1" allow="passenger bus motorcycle" speed="13.89" length="20.99" shape="1542.60,928.40 1542.60,949.39"/>
    </edge>
    <edge id=":N08_0" function="internal">
        <lane id=":N08_0_0" index="0" allow="passenger bus motorcycle" speed="6.17" length="9.05" shape="2116.20,851.60 2115.84,849.08 2114.75,847.42 2112.93,846.63 2110.39,846.70"/>
    </edge>
    <edge id=":N08_1" function="internal">
        <lane id=":N08_1_0" index="0" allow="passenger bus motorcycle" speed="13.89" length="23.49" shape="2116.20,851.60 2116.20,828.10"/>
        <lane id=":N08_1_1" index="1" allow="passenger bus motorcycle" speed="13.89" length="23.49" shape="2119.40,851.60 2119.40,828.10"/>
    </edge>
    <edge id=":N08_3" function="internal">
        <lane id=":N08_3_0" index="0" allow="passenger bus motorcycle" speed="10.74" length="5.15" shape="2119.40,851.60 2120.11,846.49"/>
    </edge>
    <edge id=":N08_16" function="internal">
        <lane id=":N08_16_0" index="0" allow="passenger bus motorcycle" speed="10.74" length="17.04" shape="2120.11,846.49 2120.21,845.79 2122.63,841.24 2126.66,837.97 2132.31,835.97"/>
    </edge>
    <edge id=":N08_4" function="internal">
        <lane id=":N08_4_0" index="0" allow="passenger bus motorcycle" speed="8.44" length="13.37" shape="2133.63,842.23 2130.21,843.44 2127.76,845.40 2126.29,848.12 2125.80,851.60"/>
    </edge>
    <edge id=":N08_5" function="internal">
        <lane id=":N08_5_0" index="0" allow="passenger bus motorcycle" speed="13.89" length="23.61" shape="2133.63,842.23 2110.39,846.70"/>
        <lane id=":N08_5_1" index="1" allow="passenger bus motorcycle" speed="13.89" length="23.61" shape="2132.97,839.10 2109.84,843.55"/>
    </edge>
    <edge id=":N08_7" function="internal">
        <lane id=":N08_7_0" index="0" allow="passenger bus motorcycle" speed="8.98" length="5.69" shape="2132.97,839.10 2127.29,839.48"/>
    </edge>
    <edge id=":N08_17" function="internal">
        <lane id=":N08_17_0" index="0" allow="passenger bus motorcycle" speed="8.98" length="15.35" shape="2127.29,839.48 2127.03,839.49 2122.79,837.79 2120.25,833.99 2119.40,828.10"/>
    </edge>
    <edge id=":N08_8" function="internal">
        <lane id=":N08_8_0" index="0" allow="passenger bus motorcycle" speed="6.10" length="9.06" shape="2125.80,828.10 2126.17,830.64 2127.26,832.28 2129.09,833.01 2131.64,832.84"/>
    </edge>
    <edge id=":N08_9" function="internal">
        <lane id=":N08_9_0" index="0" allow="passenger bus motorcycle" speed="13.89" length="23.49" shape="2125.80,828.10 2125.80,851.60"/>
        <lane id=":N08_9_1" index="1" allow="passenger bus motorcycle" speed="13.89" length="23.49" shape="2122.60,828.10 2122.60,851.60"/>
    </edge>
    <edge id=":N08_11" function="internal">
        <lane id=":N08_11_0" index="0" allow="passenger bus motorcycle" speed="10.54" length="5.31" shape="2122.60,828.10 2121.89,833.37"/>
    </edge>
    <edge id=":N08_18" function="internal">