<?xml version="1.0" encoding="UTF-8"?>

<!-- generated on 2026-06-14T10:46:25.730657+07:00 by Eclipse SUMO netconvert 1.27.0
<netconvertConfiguration xmlns:xsi="http://www.w3.org/2001/XMLSchema-instance" xsi:noNamespaceSchemaLocation="http://sumo.dlr.de/xsd/netconvertConfiguration.xsd">

    <input>
        <node-files value="net/uet.nod.xml"/>
        <edge-files value="net/uet.edg.xml"/>
        <type-files value="net/uet.typ.xml"/>
    </input>

    <output>
        <output-file value="net/uet.net.xml"/>
    </output>

    <tls_building>
        <tls.cycle.time value="90"/>
        <tls.default-type value="actuated"/>
    </tls_building>

    <junctions>
        <no-turnarounds value="true"/>
        <junctions.corner-detail value="5"/>
    </junctions>

</netconvertConfiguration>
-->

<net version="1.20" junctionCornerDetail="5" limitTurnSpeed="5.50" xmlns:xsi="http://www.w3.org/2001/XMLSchema-instance" xsi:noNamespaceSchemaLocation="http://sumo.dlr.de/xsd/net_file.xsd">

    <location netOffset="1500.00,700.00" convBoundary="0.00,0.00,3600.00,1400.00" origBoundary="-1500.00,-700.00,2100.00,700.00" projParameter="!"/>

    <type id="arterial" priority="14" numLanes="3" speed="16.67" allow="passenger bus motorcycle"/>
    <type id="outskirts" priority="10" numLanes="2" speed="19.44" allow="passenger bus motorcycle"/>
    <type id="secondary" priority="12" numLanes="2" speed="13.89" allow="passenger bus motorcycle"/>

    <edge id=":N01_0" function="internal">
        <lane id=":N01_0_0" index="0" allow="passenger bus motorcycle" speed="18.05" length="27.43" shape="313.60,1108.00 304.98,1107.50 298.61,1106.40 292.94,1105.30 286.40,1104.80"/>
        <lane id=":N01_0_1" index="1" allow="passenger bus motorcycle" speed="18.05" length="27.43" shape="313.60,1104.80 304.98,1104.30 298.61,1103.20 292.94,1102.10 286.40,1101.60"/>
    </edge>
    <edge id=":N01_2" function="internal">
        <lane id=":N01_2_0" index="0" allow="passenger bus motorcycle" speed="10.88" length="6.03" shape="313.60,1101.60 307.62,1100.89"/>
        <lane id=":N01_2_1" index="1" allow="passenger bus motorcycle" speed="10.36" length="5.01" shape="313.60,1101.60 308.64,1100.89"/>
    </edge>
    <edge id=":N01_11" function="internal">
        <lane id=":N01_11_0" index="0" allow="passenger bus motorcycle" speed="10.88" length="21.12" shape="307.62,1100.89 305.55,1100.65 299.80,1097.80 296.35,1093.05 295.20,1086.40"/>
        <lane id=":N01_11_1" index="0" allow="passenger bus motorcycle" speed="10.36" length="19.50" shape="308.64,1100.89 306.95,1100.65 302.20,1097.80 299.35,1093.05 298.40,1086.40"/>
    </edge>
    <edge id=":N01_4" function="internal">
        <lane id=":N01_4_0" index="0" allow="passenger bus motorcycle" speed="6.51" length="9.03" shape="308.00,1086.40 308.35,1088.85 309.40,1090.60 311.15,1091.65 313.60,1092.00"/>
        <lane id=":N01_4_1" index="1" allow="passenger bus motorcycle" speed="8.00" length="14.19" shape="304.80,1086.40 305.35,1090.25 307.00,1093.00 309.75,1094.65 313.60,1095.20"/>
    </edge>
    <edge id=":N01_6" function="internal">
        <lane id=":N01_6_0" index="0" allow="passenger bus motorcycle" speed="10.36" length="24.51" shape="301.60,1086.40 300.65,1093.05 297.80,1097.80 293.05,1100.65 286.40,1101.60"/>
    </edge>
    <edge id=":N01_7" function="internal">
        <lane id=":N01_7_0" index="0" allow="passenger bus motorcycle" speed="7.33" length="11.73" shape="286.40,1095.20 288.85,1094.65 290.60,1093.00 291.65,1090.25 292.00,1086.40"/>
    </edge>
    <edge id=":N01_8" function="internal">
        <lane id=":N01_8_0" index="0" allow="passenger bus motorcycle" speed="18.05" length="27.36" shape="286.40,1095.20 292.94,1094.70 298.61,1093.60 304.98,1092.50 313.60,1092.00"/>
        <lane id=":N01_8_1" index="1" allow="passenger bus motorcycle" speed="18.05" length="27.36" shape="286.40,1098.40 292.94,1097.90 298.61,1096.80 304.98,1095.70 313.60,1095.20"/>
        <lane id=":N01_8_2" index="2" allow="passenger bus motorcycle" speed="18.05" length="27.36" shape="286.40,1098.40 313.60,1098.40"/>
    </edge>
    <edge id=":N02_0" function="internal">
        <lane id=":N02_0_0" index="0" allow="passenger bus motorcycle" speed="16.67" length="27.20" shape="913.60,1108.00 886.40,1108.00"/>
        <lane id=":N02_0_1" index="1" allow="passenger bus motorcycle" speed="16.67" length="27.20" shape="913.60,1104.80 886.40,1104.80"/>
        <lane id=":N02_0_2" index="2" allow="passenger bus motorcycle" speed="16.67" length="27.20" shape="913.60,1101.60 886.40,1101.60"/>
    </edge>
    <edge id=":N02_3" function="internal">
        <lane id=":N02_3_0" index="0" allow="passenger bus motorcycle" speed="10.88" length="6.03" shape="913.60,1101.60 907.62,1100.89"/>
        <lane id=":N02_3_1" index="1" allow="passenger bus motorcycle" speed="10.36" length="5.01" shape="913.60,1101.60 908.64,1100.89"/>
    </edge>
    <edge id=":N02_13" function="internal">
        <lane id=":N02_13_0" index="0" allow="passenger bus motorcycle" speed="10.88" length="21.12" shape="907.62,1100.89 905.55,1100.65 899.80,1097.80 896.35,1093.05 895.20,1086.40"/>
        <lane id=":N02_13_1" index="0" allow="passenger bus motorcycle" speed="10.36" length="19.50" shape="908.64,1100.89 906.95,1100.65 902.20,1097.80 899.35,1093.05 898.40,1086.40"/>
    </edge>
    <edge id=":N02_5" function="internal">
        <lane id=":N02_5_0" index="0" allow="passenger bus motorcycle" speed="6.51" length="9.03" shape="908.00,1086.40 908.35,1088.85 909.40,1090.60 911.15,1091.65 913.60,1092.00"/>
        <lane id=":N02_5_1" index="1" allow="passenger bus motorcycle" speed="8.00" length="14.19" shape="904.80,1086.40 905.35,1090.25 907.00,1093.00 909.75,1094.65 913.60,1095.20"/>
    </edge>
    <edge id=":N02_7" function="internal">
        <lane id=":N02_7_0" index="0" allow="passenger bus motorcycle" speed="10.88" length="27.14" shape="901.60,1086.40 900.65,1094.45 897.80,1100.20 893.05,1103.65 886.40,1104.80"/>
        <lane id=":N02_7_1" index="1" allow="passenger bus motorcycle" speed="10.36" length="24.51" shape="901.60,1086.40 900.65,1093.05 897.80,1097.80 893.05,1100.65 886.40,1101.60"/>
    </edge>
    <edge id=":N02_9" function="internal">
        <lane id=":N02_9_0" index="0" allow="passenger bus motorcycle" speed="6.51" length="9.03" shape="886.40,1092.00 888.85,1091.65 890.60,1090.60 891.65,1088.85 892.00,1086.40"/>
    </edge>
    <edge id=":N02_10" function="internal">
        <lane id=":N02_10_0" index="0" allow="passenger bus motorcycle" speed="16.67" length="27.20" shape="886.40,1092.00 913.60,1092.00"/>
        <lane id=":N02_10_1" index="1" allow="passenger bus motorcycle" speed="16.67" length="27.20" shape="886.40,1095.20 913.60,1095.20"/>
        <lane id=":N02_10_2" index="2" allow="passenger bus motorcycle" speed="16.67" length="27.20" shape="886.40,1098.40 913.60,1098.40"/>
    </edge>
    <edge id=":N03_0" function="internal">
        <lane id=":N03_0_0" index="0" allow="passenger bus motorcycle" speed="6.51" length="9.03" shape="1495.20,1113.60 1494.85,1111.15 1493.80,1109.40 1492.05,1108.35 1489.60,1108.00"/>
    </edge>
    <edge id=":N03_1" function="internal">
        <lane id=":N03_1_0" index="0" allow="passenger bus motorcycle" speed="16.66" length="27.20" shape="1495.20,1113.60 1495.20,1086.40"/>
        <lane id=":N03_1_1" index="1" allow="passenger bus motorcycle" speed="16.66" length="27.20" shape="1498.40,1113.60 1498.40,1086.40"/>
    </edge>
    <edge id=":N03_3" function="internal">
        <lane id=":N03_3_0" index="0" allow="passenger bus motorcycle" speed="9.84" length="6.30" shape="1498.40,1113.60 1499.11,1107.34"/>
    </edge>
    <edge id=":N03_18" function="internal">
        <lane id=":N03_18_0" index="0" allow="passenger bus motorcycle" speed="9.84" length="15.70" shape="1499.11,1107.34 1499.15,1106.95 1501.40,1102.20 1505.15,1099.35 1510.40,1098.40"/>
    </edge>
    <edge id=":N03_4" function="internal">
        <lane id=":N03_4_0" index="0" allow="passenger bus motorcycle" speed="6.51" length="9.03" shape="1510.40,1108.00 1507.95,1108.35 1506.20,1109.40 1505.15,1111.15 1504.80,1113.60"/>
    </edge>
    <edge id=":N03_5" function="internal">
        <lane id=":N03_5_0" index="0" allow="passenger bus motorcycle" speed="16.67" length="20.80" shape="1510.40,1108.00 1489.60,1108.00"/>
        <lane id=":N03_5_1" index="1" allow="passenger bus motorcycle" speed="16.67" length="20.80" shape="1510.40,1104.80 1489.60,1104.80"/>
        <lane id=":N03_5_2" index="2" allow="passenger bus motorcycle" speed="16.67" length="20.80" shape="1510.40,1101.60 1489.60,1101.60"/>
    </edge>
    <edge id=":N03_8" function="internal">
        <lane id=":N03_8_0" index="0" allow="passenger bus motorcycle" speed="9.84" length="4.01" shape="1510.40,1101.60 1506.45,1100.89"/>
    </edge>
    <edge id=":N03_19" function="internal">
        <lane id=":N03_19_0" index="0" allow="passenger bus motorcycle" speed="9.84" length="17.98" shape="1506.45,1100.89 1505.15,1100.65 1501.40,1097.80 1499.15,1093.05 1498.40,1086.40"/>
    </edge>
    <edge id=":N03_9" function="internal">
        <lane id=":N03_9_0" index="0" allow="passenger bus motorcycle" speed="6.51" length="9.03" shape="1504.80,1086.40 1505.15,1088.85 1506.20,1090.60 1507.95,1091.65 1510.40,1092.00"/>
    </edge>
    <edge id=":N03_10" function="internal">
        <lane id=":N03_10_0" index="0" allow="passenger bus motorcycle" speed="16.66" length="27.20" shape="1504.80,1086.40 1504.80,1113.60"/>
        <lane id=":N03_10_1" index="1" allow="passenger bus motorcycle" speed="16.66" length="27.20" shape="1501.60,1086.40 1501.60,1113.60"/>
    </edge>
    <edge id=":N03_12" function="internal">
        <lane id=":N03_12_0" index="0" allow="passenger bus motorcycle" speed="9.84" length="6.30" shape="1501.60,1086.40 1500.89,1092.66"/>
    </edge>
    <edge id=":N03_20" function="internal">
        <lane id=":N03_20_0" index="0" allow="passenger bus motorcycle" speed="9.84" length="15.70" shape="1500.89,1092.66 1500.85,1093.05 1498.60,1097.80 1494.85,1100.65 1489.60,1101.60"/>
    </edge>
    <edge id=":N03_13" function="internal">
        <lane id=":N03_13_0" index="0" allow="passenger bus motorcycle" speed="6.51" length="9.03" shape="1489.60,1092.00 1492.05,1091.65 1493.80,1090.60 1494.85,1088.85 1495.20,1086.40"/>
    </edge>
    <edge id=":N03_14" function="internal">
        <lane id=":N03_14_0" index="0" allow="passenger bus motorcycle" speed="16.67" length="20.80" shape="1489.60,1092.00 1510.40,1092.00"/>
        <lane id=":N03_14_1" index="1" allow="passenger bus motorcycle" speed="16.67" length="20.80" shape="1489.60,1095.20 1510.40,1095.20"/>
        <lane id=":N03_14_2" index="2" allow="passenger bus motorcycle" speed="16.67" length="20.80" shape="1489.60,1098.40 1510.40,1098.40"/>
    </edge>
    <edge id=":N03_17" function="internal">
        <lane id=":N03_17_0" index="0" allow="passenger bus motorcycle" speed="9.84" length="4.01" shape="1489.60,1098.40 1493.55,1099.11"/>
    </edge>
    <edge id=":N03_21" function="internal">
        <lane id=":N03_21_0" index="0" allow="passenger bus motorcycle" speed="9.84" length="17.98" shape="1493.55,1099.11 1494.85,1099.35 1498.60,1102.20 1500.85,1106.95 1501.60,1113.60"/>
    </edge>
    <edge id=":N04_0" function="internal">
        <lane id=":N04_0_0" index="0" allow="passenger bus motorcycle" speed="6.51" length="9.03" shape="2095.20,1113.60 2094.85,1111.15 2093.80,1109.40 2092.05,1108.35 2089.60,1108.00"/>
    </edge>
    <edge id=":N04_1" function="internal">
        <lane id=":N04_1_0" index="0" allow="passenger bus motorcycle" speed="16.66" length="27.20" shape="2095.20,1113.60 2095.20,1086.40"/>
        <lane id=":N04_1_1" index="1" allow="passenger bus motorcycle" speed="16.66" length="27.20" shape="2098.40,1113.60 2098.40,1086.40"/>
    </edge>
    <edge id=":N04_3" function="internal">
        <lane id=":N04_3_0" index="0" allow="passenger bus motorcycle" speed="9.84" length="6.30" shape="2098.40,1113.60 2099.11,1107.34"/>
    </edge>
    <edge id=":N04_18" function="internal">
        <lane id=":N04_18_0" index="0" allow="passenger bus motorcycle" speed="9.84" length="15.70" shape="2099.11,1107.34 2099.15,1106.95 2101.40,1102.20 2105.15,1099.35 2110.40,1098.40"/>
    </edge>
    <edge id=":N04_4" function="internal">
        <lane id=":N04_4_0" index="0" allow="passenger bus motorcycle" speed="6.51" length="9.03" shape="2110.40,1108.00 2107.95,1108.35 2106.20,1109.40 2105.15,1111.15 2104.80,1113.60"/>
    </edge>
    <edge id=":N04_5" function="internal">
        <lane id=":N04_5_0" index="0" allow="passenger bus motorcycle" speed="16.67" length="20.80" shape="2110.40,1108.00 2089.60,1108.00"/>
        <lane id=":N04_5_1" index="1" allow="passenger bus motorcycle" speed="16.67" length="20.80" shape="2110.40,1104.80 2089.60,1104.80"/>
        <lane id=":N04_5_2" index="2" allow="passenger bus motorcycle" speed="16.67" length="20.80" shape="2110.40,1101.60 2089.60,1101.60"/>
    </edge>
    <edge id=":N04_8" function="internal">
        <lane id=":N04_8_0" index="0" allow="passenger bus motorcycle" speed="9.84" length="4.01" shape="2110.40,1101.60 2106.45,1100.89"/>
    </edge>
    <edge id=":N04_19" function="internal">
        <lane id=":N04_19_0" index="0" allow="passenger bus motorcycle" speed="9.84" length="17.98" shape="2106.45,1100.89 2105.15,1100.65 2101.40,1097.80 2099.15,1093.05 2098.40,1086.40"/>
    </edge>
    <edge id=":N04_9" function="internal">
        <lane id=":N04_9_0" index="0" allow="passenger bus motorcycle" speed="6.51" length="9.03" shape="2104.80,1086.40 2105.15,1088.85 2106.20,1090.60 2107.95,1091.65 2110.40,1092.00"/>
    </edge>
    <edge id=":N04_10" function="internal">
        <lane id=":N04_10_0" index="0" allow="passenger bus motorcycle" speed="16.66" length="27.20" shape="2104.80,1086.40 2104.80,1113.60"/>
        <lane id=":N04_10_1" index="1" allow="passenger bus motorcycle" speed="16.66" length="27.20" shape="2101.60,1086.40 2101.60,1113.60"/>
    </edge>
    <edge id=":N04_12" function="internal">
        <lane id=":N04_12_0" index="0" allow="passenger bus motorcycle" speed="9.84" length="6.30" shape="2101.60,1086.40 2100.89,1092.66"/>
    </edge>
    <edge id=":N04_20" function="internal">
        <lane id=":N04_20_0" index="0" allow="passenger bus motorcycle" speed="9.84" length="15.70" shape="2100.89,1092.66 2100.85,1093.05 2098.60,1097.80 2094.85,1100.65 2089.60,1101.60"/>
    </edge>
    <edge id=":N04_13" function="internal">
        <lane id=":N04_13_0" index="0" allow="passenger bus motorcycle" speed="6.51" length="9.03" shape="2089.60,1092.00 2092.05,1091.65 2093.80,1090.60 2094.85,1088.85 2095.20,1086.40"/>
    </edge>
    <edge id=":N04_14" function="internal">
        <lane id=":N04_14_0" index="0" allow="passenger bus motorcycle" speed="16.67" length="20.80" shape="2089.60,1092.00 2110.40,1092.00"/>
        <lane id=":N04_14_1" index="1" allow="passenger bus motorcycle" speed="16.67" length="20.80" shape="2089.60,1095.20 2110.40,1095.20"/>
        <lane id=":N04_14_2" index="2" allow="passenger bus motorcycle" speed="16.67" length="20.80" shape="2089.60,1098.40 2110.40,1098.40"/>
    </edge>
    <edge id=":N04_17" function="internal">
        <lane id=":N04_17_0" index="0" allow="passenger bus motorcycle" speed="9.84" length="4.01" shape="2089.60,1098.40 2093.55,1099.11"/>
    </edge>
    <edge id=":N04_21" function="internal">
        <lane id=":N04_21_0" index="0" allow="passenger bus motorcycle" speed="9.84" length="17.98" shape="2093.55,1099.11 2094.85,1099.35 2098.60,1102.20 2100.85,1106.95 2101.60,1113.60"/>
    </edge>
    <edge id=":N05_0" function="internal">
        <lane id=":N05_0_0" index="0" allow="passenger bus motorcycle" speed="6.51" length="9.03" shape="2695.20,1113.60 2694.85,1111.15 2693.80,1109.40 2692.05,1108.35 2689.60,1108.00"/>
    </edge>
    <edge id=":N05_1" function="internal">
        <lane id=":N05_1_0" index="0" allow="passenger bus motorcycle" speed="16.66" length="27.20" shape="2695.20,1113.60 2695.20,1086.40"/>
        <lane id=":N05_1_1" index="1" allow="passenger bus motorcycle" speed="16.66" length="27.20" shape="2698.40,1113.60 2698.40,1086.40"/>
    </edge>
    <edge id=":N05_3" function="internal">
        <lane id=":N05_3_0" index="0" allow="passenger bus motorcycle" speed="9.84" length="6.30" shape="2698.40,1113.60 2699.11,1107.34"/>
    </edge>
    <edge id=":N05_18" function="internal">
        <lane id=":N05_18_0" index="0" allow="passenger bus motorcycle" speed="9.84" length="15.70" shape="2699.11,1107.34 2699.15,1106.95 2701.40,1102.20 2705.15,1099.35 2710.40,1098.40"/>
    </edge>
    <edge id=":N05_4" function="internal">
        <lane id=":N05_4_0" index="0" allow="passenger bus motorcycle" speed="6.51" length="9.03" shape="2710.40,1108.00 2707.95,1108.35 2706.20,1109.40 2705.15,1111.15 2704.80,1113.60"/>
    </edge>
    <edge id=":N05_5" function="internal">
        <lane id=":N05_5_0" index="0" allow="passenger bus motorcycle" speed="16.67" length="20.80" shape="2710.40,1108.00 2689.60,1108.00"/>
        <lane id=":N05_5_1" index="1" allow="passenger bus motorcycle" speed="16.67" length="20.80" shape="2710.40,1104.80 2689.60,1104.80"/>
        <lane id=":N05_5_2" index="2" allow="passenger bus motorcycle" speed="16.67" length="20.80" shape="2710.40,1101.60 2689.60,1101.60"/>
    </edge>
    <edge id=":N05_8" function="internal">
        <lane id=":N05_8_0" index="0" allow="passenger bus motorcycle" speed="9.84" length="4.01" shape="2710.40,1101.60 2706.45,1100.89"/>
    </edge>
    <edge id=":N05_19" function="internal">
        <lane id=":N05_19_0" index="0" allow="passenger bus motorcycle" speed="9.84" length="17.98" shape="2706.45,1100.89 2705.15,1100.65 2701.40,1097.80 2699.15,1093.05 2698.40,1086.40"/>
    </edge>
    <edge id=":N05_9" function="internal">
        <lane id=":N05_9_0" index="0" allow="passenger bus motorcycle" speed="6.51" length="9.03" shape="2704.80,1086.40 2705.15,1088.85 2706.20,1090.60 2707.95,1091.65 2710.40,1092.00"/>
    </edge>
    <edge id=":N05_10" function="internal">
        <lane id=":N05_10_0" index="0" allow="passenger bus motorcycle" speed="16.66" length="27.20" shape="2704.80,1086.40 2704.80,1113.60"/>
        <lane id=":N05_10_1" index="1" allow="passenger bus motorcycle" speed="16.66" length="27.20" shape="2701.60,1086.40 2701.60,1113.60"/>
    </edge>
    <edge id=":N05_12" function="internal">
        <lane id=":N05_12_0" index="0" allow="passenger bus motorcycle" speed="9.84" length="6.30" shape="2701.60,1086.40 2700.89,1092.66"/>
    </edge>
    <edge id=":N05_20" function="internal">
        <lane id=":N05_20_0" index="0" allow="passenger bus motorcycle" speed="9.84" length="15.70" shape="2700.89,1092.66 2700.85,1093.05 2698.60,1097.80 2694.85,1100.65 2689.60,1101.60"/>
    </edge>
    <edge id=":N05_13" function="internal">
        <lane id=":N05_13_0" index="0" allow="passenger bus motorcycle" speed="6.51" length="9.03" shape="2689.60,1092.00 2692.05,1091.65 2693.80,1090.60 2694.85,1088.85 2695.20,1086.40"/>
    </edge>
    <edge id=":N05_14" function="internal">
        <lane id=":N05_14_0" index="0" allow="passenger bus motorcycle" speed="16.67" length="20.80" shape="2689.60,1092.00 2710.40,1092.00"/>
        <lane id=":N05_14_1" index="1" allow="passenger bus motorcycle" speed="16.67" length="20.80" shape="2689.60,1095.20 2710.40,1095.20"/>
        <lane id=":N05_14_2" index="2" allow="passenger bus motorcycle" speed="16.67" length="20.80" shape="2689.60,1098.40 2710.40,1098.40"/>
    </edge>
    <edge id=":N05_17" function="internal">
        <lane id=":N05_17_0" index="0" allow="passenger bus motorcycle" speed="9.84" length="4.01" shape="2689.60,1098.40 2693.55,1099.11"/>
    </edge>
    <edge id=":N05_21" function="internal">
        <lane id=":N05_21_0" index="0" allow="passenger bus motorcycle" speed="9.84" length="17.98" shape="2693.55,1099.11 2694.85,1099.35 2698.60,1102.20 2700.85,1106.95 2701.60,1113.60"/>
    </edge>
    <edge id=":N06_0" function="internal">
        <lane id=":N06_0_0" index="0" allow="passenger bus motorcycle" speed="7.33" length="11.73" shape="3295.20,1113.60 3294.65,1111.15 3293.00,1109.40 3290.25,1108.35 3286.40,1108.00"/>
    </edge>
    <edge id=":N06_1" function="internal">
        <lane id=":N06_1_0" index="0" allow="passenger bus motorcycle" speed="18.05" length="27.36" shape="3295.20,1113.60 3294.70,1107.06 3293.60,1101.39 3292.50,1095.02 3292.00,1086.40"/>
        <lane id=":N06_1_1" index="1" allow="passenger bus motorcycle" speed="18.05" length="27.36" shape="3298.40,1113.60 3297.90,1107.06 3296.80,1101.39 3295.70,1095.02 3295.20,1086.40"/>
        <lane id=":N06_1_2" index="2" allow="passenger bus motorcycle" speed="18.05" length="27.36" shape="3298.40,1113.60 3298.40,1086.40"/>
    </edge>
    <edge id=":N06_4" function="internal">
        <lane id=":N06_4_0" index="0" allow="passenger bus motorcycle" speed="10.36" length="7.16" shape="3298.40,1113.60 3299.35,1106.95 3299.58,1106.57"/>
    </edge>
    <edge id=":N06_18" function="internal">
        <lane id=":N06_18_0" index="0" allow="passenger bus motorcycle" speed="10.36" length="17.36" shape="3299.58,1106.57 3302.20,1102.20 3306.95,1099.35 3313.60,1098.40"/>
    </edge>
    <edge id=":N06_5" function="internal">
        <lane id=":N06_5_0" index="0" allow="passenger bus motorcycle" speed="8.00" length="14.19" shape="3313.60,1104.80 3309.75,1105.35 3307.00,1107.00 3305.35,1109.75 3304.80,1113.60"/>
    </edge>
    <edge id=":N06_6" function="internal">
        <lane id=":N06_6_0" index="0" allow="passenger bus motorcycle" speed="18.05" length="27.36" shape="3313.60,1104.80 3307.06,1105.30 3301.39,1106.40 3295.02,1107.50 3286.40,1108.00"/>
        <lane id=":N06_6_1" index="1" allow="passenger bus motorcycle" speed="18.05" length="27.36" shape="3313.60,1101.60 3307.06,1102.10 3301.39,1103.20 3295.02,1104.30 3286.40,1104.80"/>
        <lane id=":N06_6_2" index="2" allow="passenger bus motorcycle" speed="18.05" length="27.36" shape="3313.60,1101.60 3286.40,1101.60"/>
    </edge>
    <edge id=":N06_9" function="internal">
        <lane id=":N06_9_0" index="0" allow="passenger bus motorcycle" speed="10.36" length="7.16" shape="3313.60,1101.60 3306.95,1100.65 3306.57,1100.42"/>
    </edge>
    <edge id=":N06_19" function="internal">
        <lane id=":N06_19_0" index="0" allow="passenger bus motorcycle" speed="10.36" length="17.36" shape="3306.57,1100.42 3302.20,1097.80 3299.35,1093.05 3298.40,1086.40"/>
    </edge>
    <edge id=":N06_10" function="internal">
        <lane id=":N06_10_0" index="0" allow="passenger bus motorcycle" speed="7.33" length="11.73" shape="3308.00,1086.40 3308.35,1090.25 3309.40,1093.00 3311.15,1094.65 3313.60,1095.20"/>
    </edge>
    <edge id=":N06_11" function="internal">
        <lane id=":N06_11_0" index="0" allow="passenger bus motorcycle" speed="18.05" length="27.43" shape="3308.00,1086.40 3307.50,1095.02 3306.40,1101.39 3305.30,1107.06 3304.80,1113.60"/>
        <lane id=":N06_11_1" index="1" allow="passenger bus motorcycle" speed="18.05" length="27.43" shape="3304.80,1086.40 3304.30,1095.02 3303.20,1101.39 3302.10,1107.06 3301.60,1113.60"/>
    </edge>
    <edge id=":N06_13" function="internal">
        <lane id=":N06_13_0" index="0" allow="passenger bus motorcycle" speed="10.36" length="5.01" shape="3301.60,1086.40 3300.89,1091.36"/>
    </edge>
    <edge id=":N06_20" function="internal">
        <lane id=":N06_20_0" index="0" allow="passenger bus motorcycle" speed="10.36" length="19.50" shape="3300.89,1091.36 3300.65,1093.05 3297.80,1097.80 3293.05,1100.65 3286.40,1101.60"/>
    </edge>
    <edge id=":N06_14" function="internal">
        <lane id=":N06_14_0" index="0" allow="passenger bus motorcycle" speed="6.51" length="9.03" shape="3286.40,1092.00 3288.85,1091.65 3290.60,1090.60 3291.65,1088.85 3292.00,1086.40"/>
    </edge>
    <edge id=":N06_15" function="internal">
        <lane id=":N06_15_0" index="0" allow="passenger bus motorcycle" speed="18.05" length="27.43" shape="3286.40,1092.00 3295.02,1092.50 3301.39,1093.60 3307.06,1094.70 3313.60,1095.20"/>
        <lane id=":N06_15_1" index="1" allow="passenger bus motorcycle" speed="18.05" length="27.43" shape="3286.40,1095.20 3295.02,1095.70 3301.39,1096.80 3307.06,1097.90 3313.60,1098.40"/>
    </edge>
    <edge id=":N06_17" function="internal">
        <lane id=":N06_17_0" index="0" allow="passenger bus motorcycle" speed="10.36" length="5.01" shape="3286.40,1098.40 3291.36,1099.11"/>
    </edge>
    <edge id=":N06_21" function="internal">
        <lane id=":N06_21_0" index="0" allow="passenger bus motorcycle" speed="10.36" length="19.50" shape="3291.36,1099.11 3293.05,1099.35 3297.80,1102.20 3300.65,1106.95 3301.60,1113.60"/>
    </edge>
    <edge id=":N07_0" function="internal">
        <lane id=":N07_0_0" index="0" allow="passenger bus motorcycle" speed="13.89" length="20.80" shape="1495.20,710.40 1495.20,689.60"/>
        <lane id=":N07_0_1" index="1" allow="passenger bus motorcycle" speed="13.89" length="20.80" shape="1498.40,710.40 1498.40,689.60"/>
    </edge>
    <edge id=":N07_2" function="internal">
        <lane id=":N07_2_0" index="0" allow="passenger bus motorcycle" speed="9.26" length="5.01" shape="1498.40,710.40 1499.11,705.44"/>
    </edge>
    <edge id=":N07_9" function="internal">
        <lane id=":N07_9_0" index="0" allow="passenger bus motorcycle" speed="9.26" length="14.34" shape="1499.11,705.44 1499.15,705.15 1501.40,701.40 1505.15,699.15 1510.40,698.40"/>
    </edge>
    <edge id=":N07_3" function="internal">
        <lane id=":N07_3_0" index="0" allow="passenger bus motorcycle" speed="6.51" length="9.03" shape="1510.40,704.80 1507.95,705.15 1506.20,706.20 1505.15,707.95 1504.80,710.40"/>
        <lane id=":N07_3_1" index="1" allow="passenger bus motorcycle" speed="8.00" length="14.19" shape="1510.40,701.60 1506.55,702.15 1503.80,703.80 1502.15,706.55 1501.60,710.40"/>
    </edge>
    <edge id=":N07_5" function="internal">
        <lane id=":N07_5_0" index="0" allow="passenger bus motorcycle" speed="9.26" length="19.35" shape="1510.40,701.60 1505.15,700.85 1501.40,698.60 1499.15,694.85 1498.40,689.60"/>
    </edge>
    <edge id=":N07_6" function="internal">
        <lane id=":N07_6_0" index="0" allow="passenger bus motorcycle" speed="6.51" length="9.03" shape="1504.80,689.60 1505.15,692.05 1506.20,693.80 1507.95,694.85 1510.40,695.20"/>
    </edge>
    <edge id=":N07_7" function="internal">
        <lane id=":N07_7_0" index="0" allow="passenger bus motorcycle" speed="13.89" length="20.80" shape="1504.80,689.60 1504.80,710.40"/>
        <lane id=":N07_7_1" index="1" allow="passenger bus motorcycle" speed="13.89" length="20.80" shape="1501.60,689.60 1501.60,710.40"/>
    </edge>
    <edge id=":N08_0" function="internal">
        <lane id=":N08_0_0" index="0" allow="passenger bus motorcycle" speed="6.51" length="9.03" shape="2095.20,710.40 2094.85,707.95 2093.80,706.20 2092.05,705.15 2089.60,704.80"/>
    </edge>
    <edge id=":N08_1" function="internal">
        <lane id=":N08_1_0" index="0" allow="passenger bus motorcycle" speed="13.89" length="20.80" shape="2095.20,710.40 2095.20,689.60"/>
        <lane id=":N08_1_1" index="1" allow="passenger bus motorcycle" speed="13.89" length="20.80" shape="2098.40,710.40 2098.40,689.60"/>
    </edge>
    <edge id=":N08_3" function="internal">
        <lane id=":N08_3_0" index="0" allow="passenger bus motorcycle" speed="9.26" length="5.01" shape="2098.40,710.40 2099.11,705.44"/>
    </edge>
    <edge id=":N08_16" function="internal">
        <lane id=":N08_16_0" index="0" allow="passenger bus motorcycle" speed="9.26" length="14.34" shape="2099.11,705.44 2099.15,705.15 2101.40,701.40 2105.15,699.15 2110.40,698.40"/>
    </edge>
    <edge id=":N08_4" function="internal">
        <lane id=":N08_4_0" index="0" allow="passenger bus motorcycle" speed="6.51" length="9.03" shape="2110.40,704.80 2107.95,705.15 2106.20,706.20 2105.15,707.95 2104.80,710.40"/>
    </edge>
    <edge id=":N08_5" function="internal">
        <lane id=":N08_5_0" index="0" allow="passenger bus motorcycle" speed="13.89" length="20.80" shape="2110.40,704.80 2089.60,704.80"/>
        <lane id=":N08_5_1" index="1" allow="passenger bus motorcycle" speed="13.89" length="20.80" shape="2110.40,701.60 2089.60,701.60"/>
    </edge>
    <edge id=":N08_7" function="internal">
        <lane id=":N08_7_0" index="0" allow="passenger bus motorcycle" speed="9.26" length="5.01" shape="2110.40,701.60 2105.44,700.89"/>
    </edge>
    <edge id=":N08_17" function="internal">
        <lane id=":N08_17_0" index="0" allow="passenger bus motorcycle" speed="9.26" length="14.34" shape="2105.44,700.89 2105.15,700.85 2101.40,698.60 2099.15,694.85 2098.40,689.60"/>
    </edge>
    <edge id=":N08_8" function="internal">
        <lane id=":N08_8_0" index="0" allow="passenger bus motorcycle" speed="6.51" length="9.03" shape="2104.80,689.60 2105.15,692.05 2106.20,693.80 2107.95,694.85 2110.40,695.20"/>
    </edge>
    <edge id=":N08_9" function="internal">
        <lane id=":N08_9_0" index="0" allow="passenger bus motorcycle" speed="13.89" length="20.80" shape="2104.80,689.60 2104.80,710.40"/>
        <lane id=":N08_9_1" index="1" allow="passenger bus motorcycle" speed="13.89" length="20.80" shape="2101.60,689.60 2101.60,710.40"/>
    </edge>
    <edge id=":N08_11" function="internal">
        <lane id=":N08_11_0" index="0" allow="passenger bus motorcycle" speed="9.26" length="5.01" shape="2101.60,689.60 2100.89,694.56"/>
    </edge>
    <edge id=":N08_18" function="internal">
        <lane id=":N08_18_0" index="0" allow="passenger bus motorcycle" speed="9.26" length="14.34" shape="2100.89,694.56 2100.85,694.85 2098.60,698.60 2094.85,700.85 2089.60,701.60"/>
    </edge>
    <edge id=":N08_12" function="internal">